71

C          0.0000000    0.0000000    0.0000000
C         -0.4092254   -1.3513057   -0.0718040
C         -0.9937699    0.9509938    0.0862638
N         -1.8892929   -3.0506449   -0.1352477
N         -0.6165656   -3.4308381   -0.1939047
N          0.3190530   -2.4890234   -0.1622154
C         -0.2563046   -4.8360075   -0.2900814
H         -0.7242996    2.0019930    0.1434304
H         -3.1148931    1.3934651    0.1726212
H         -1.1808559   -5.4110938   -0.3000736
H          0.3583720   -5.1152968    0.5691732
H          0.3096426   -5.0059030   -1.2092995
C         -2.3769850    0.5989940    0.1031541
C         -1.7916177   -1.7028899   -0.0549011
C         -2.7958512   -0.7128607    0.0340553
H         -3.8470350   -0.9825432    0.0467371
C          3.8590092    0.5247308   -0.3104294
C          3.2718127    1.6985323   -0.0052660
S          2.6803883   -0.7330328   -0.7144787
H          1.2028522    2.4128044    0.1074714
H          3.8303541    2.6099148    0.2749150
C          1.8488496    1.5917842   -0.0959477
C          1.3841497    0.3390714   -0.4681456
C          8.5396792    1.5129725   -0.0505540
C          7.5783463    0.5711849   -0.2918310
N          7.9380980    2.7013061    0.2989963
C          6.5027405    2.5798910    0.3000444
C          7.3733219   -0.8189455   -0.6777877
O          8.1264771   -1.7373046   -0.9552679
O          5.7596510    3.5059327    0.5793981
C          5.2651082   -2.1849141   -1.0109765
C          8.5941076    3.9510815    0.6349318
H          8.2862551    4.7418122   -0.0563716
H          8.3269326    4.2616934    1.6498583
H          9.6760442    3.8165721    0.5712330
H          4.6630009   -2.5497090   -0.1712593
H          4.6218887   -2.0660979   -1.8901499
H          6.0468302   -2.9136333   -1.2346747
N          5.9339563   -0.9423864   -0.6773255
C          6.2936558    1.1886790   -0.0863558
C          5.3329562    0.2469054   -0.3275613
C         12.4437690    0.7988507    0.0534784
C         12.2453466    2.0975645    0.3529871
S         10.9367414   -0.0363697   -0.3535196
H         10.4964455    3.4146380    0.4537550
H         13.0562660    2.7937136    0.6338325
C         10.8590374    2.4338354    0.2554635
C         10.0326589    1.3837030   -0.1161376
C         16.4509763   -0.9825432    0.0467371
C         16.2510615    0.3805440   -0.2714724
C         15.3307387   -1.7243895    0.3526451
N         15.0499034    2.2584661   -0.6099590
N         16.3589757    2.4065801   -0.7880085
N         17.1381235    1.3461781   -0.6080387
C         16.9241436    3.6907709   -1.1687645
H         15.4382051   -2.7762791    0.6032190
H         13.1777369   -1.7881633    0.6010292
H         16.1008446    4.3981027   -1.2565475
H         17.6320064    4.0196861   -0.4033335
H         17.4451193    3.5917126   -2.1235706
C         14.0227998   -1.1527541    0.3513976
C         14.9438705    0.9516437   -0.2726568
C         13.8074849    0.1742016    0.0438656
C         20.2548914   -2.0429676    0.2345243
C         19.4990825   -3.1424027    0.5341006
S         19.2614393   -0.6830250   -0.1849474
H         17.3317759   -3.6392324    0.6231680
H         19.9241843   -4.0980982    0.8219574
C         18.0951248   -2.8938970    0.4264432
C         17.8130866   -1.6107591    0.0472834
H         21.3325345   -1.9486860    0.2345243
