61

C          0.41174        1.02459        0.00039
C          1.26960        2.09686        0.00026
S          1.31378       -0.51199        0.00055
C          7.35922        1.55126        0.00015
C          6.64912        0.32920        0.00032
C          7.32422       -0.89881        0.00041
C          8.71330       -0.88550        0.00034
C          9.42331        0.33653        0.00017
C          8.74828        1.56453        0.00008
C          9.67302       -2.07545        0.00041
C         11.02868       -1.36806        0.00026
C         10.85695        0.04336        0.00012
C          6.39952        2.74120        0.00006
C          5.04384        2.03383        0.00019
C          5.21568        0.62233        0.00034
C         12.29029       -1.92863        0.00024
C         13.41721       -1.07623        0.00008
C         13.22244        0.33056       -0.00005
C         11.95065        0.90661       -0.00003
C          3.78238        2.59441        0.00016
C          2.65504        1.74204        0.00028
C          2.85018        0.33488        0.00044
C          4.12178       -0.24096        0.00047
C          9.49124       -2.94365        1.26581
C          9.49109       -2.94392       -1.26478
C          6.58142        3.60965        1.26527
C          6.58132        3.60940       -1.26533
H          9.30030        2.50186       -0.00005
H          6.77222       -1.83614        0.00054
H          3.63963        3.67255        0.00004
H          4.25068       -1.31965        0.00059
H         12.43311       -3.00676        0.00034
H         11.82175        1.98530       -0.00014
H          8.49168       -3.39325        1.28696
H         10.22586       -3.75695        1.28599
H          9.61702       -2.34698        2.17487
H          9.61677       -2.34745       -2.17397
H         10.22571       -3.75723       -1.28486
H          8.49152       -3.39352       -1.28571
H          7.58089        4.05901       -1.28647
H          6.45555        3.01271       -2.17436
H          5.84667        4.42269       -1.28553
H          7.58099        4.05927        1.28625
H          5.84677        4.42294        1.28537
H          6.45571        3.01315        2.17443
H         15.15979       -2.45235        0.00010
H          0.91421        3.11842        0.00014
S         14.75910        1.17717       -0.00024
C         14.80369       -1.43084        0.00002
C         15.65992       -0.35915       -0.00014
C         -4.00569        0.88583        0.00034
C         -3.30486        2.14889        0.00003
C         -3.18334       -0.23151        0.00066
N         -3.87666        3.35606       -0.00027
N         -1.37330        3.45833       -0.00022
S         -2.66832        4.46711       -0.00058
H         -1.24243       -1.12181        0.00097
H         -3.63379       -1.21953        0.00089
C         -1.77196       -0.17379        0.00069
C         -1.84479        2.20854        0.00007
C         -1.04348        1.00683        0.00039
