71
DPPBTZ-torsion-4-24
C    -8.519056 0.519279 -0.169844
C    -9.479854 -0.509939 0.092277
C    -9.065853 1.748198 -0.533732
N    -11.539921 -1.407039 0.292396
N    -10.554040 -2.250288 0.565074
N    -9.308743 -1.798158 0.465657
C    -10.820545 -3.641550 0.893127
H    -8.399834 2.578357 -0.751650
H    -10.793331 2.975596 -0.929213
H    -11.827743 -3.702407 1.304208
H    -10.081853 -3.972420 1.623793
H    -10.748571 -4.259181 -0.007303
C    -10.460968 1.983118 -0.638799
C    -10.881533 -0.265651 -0.015890
C    -11.391377 0.997973 -0.385249
H    -12.459229 1.171225 -0.463096
C    -4.561815 0.513771 -0.046536
C    -5.016834 -0.758263 0.283134
S    -5.931895 1.571957 -0.373760
H    -6.946739 -1.794992 0.504587
H    -4.332477 -1.566368 0.522376
C    -6.418666 -0.879448 0.273101
C    -7.084917 0.288062 -0.062924
C    0.227968 0.046754 0.233646
C    -0.882913 0.854068 -0.023110
N    -0.261702 -1.216030 0.560863
C    -1.696208 -1.253285 0.523358
C    -1.254620 2.198326 -0.400605
O    -0.611558 3.213903 -0.658969
O    -2.337697 -2.270706 0.777350
C    -3.423292 3.364905 -0.785894
C    0.475313 -2.418176 0.906376
H    -0.275142 -3.191268 1.083006
H    1.067468 -2.279419 1.816623
H    1.132495 -2.735106 0.090302
H    -4.074623 3.690966 0.031304
H    -4.020477 3.221284 -1.692053
H    -2.671026 4.134072 -0.971870
N    -2.688467 2.163013 -0.435186
C    -2.068809 0.090950 0.145858
C    -3.179954 0.899511 -0.108121
C    4.124771 0.665820 0.230441
C    3.468963 1.821107 -0.146724
S    2.981429 -0.617807 0.527788
H    1.380653 2.501611 -0.435498
H    4.000329 2.728308 -0.412799
C    2.064305 1.701230 -0.169460
C    1.612309 0.432333 0.174699
C    8.506004 0.203254 0.308133
C    7.671899 -0.672590 -0.456580
C    7.812005 1.170616 1.029964
N    5.742742 -1.493234 -1.284167
N    6.826503 -2.117400 -1.723741
N    8.003055 -1.694453 -1.278467
C    6.726097 -3.267326 -2.607915
H    8.368673 1.875504 1.640881
H    5.949918 2.077416 1.620975
H    5.791807 -3.184341 -3.162393
H    7.581152 -3.258337 -3.284403
H    6.729672 -4.191905 -2.022552
C    6.402424 1.292624 1.022010
C    6.250480 -0.548093 -0.462623
C    5.573527 0.447623 0.296929
C    12.411301 0.396665 0.760138
C    12.151167 -0.641851 -0.091402
S    10.955852 1.180821 1.277224
H    10.352607 -1.586537 -0.985589
H    12.925006 -1.262752 -0.529736
C    10.761690 -0.820378 -0.340198
C    9.959315 0.085315 0.323960
H    13.369199 0.751004 1.116774
