71
DPPBTZ-torsion-2-13
C    -8.143022 -0.924659 -0.277915
C    -9.435570 -0.545336 0.205578
C    -8.109694 -2.128890 -0.975769
N    -11.658808 -0.748610 0.528521
N    -11.134372 0.350493 1.052843
N    -9.827243 0.541869 0.908508
C    -11.946258 1.279095 1.822067
H    -7.158922 -2.492319 -1.355505
H    -9.136331 -3.852011 -1.766572
H    -12.978827 1.177726 1.489259
H    -11.578514 2.290106 1.643933
H    -11.875645 1.045065 2.888786
C    -9.259801 -2.926809 -1.211141
C    -10.586635 -1.354213 -0.032694
C    -10.508870 -2.565451 -0.754282
H    -11.391164 -3.171499 -0.929573
C    -4.642936 0.892617 -0.088315
C    -5.522630 1.560164 0.747143
S    -5.436296 -0.472749 -0.840241
H    -7.640966 1.395304 1.349919
H    -5.230273 2.410886 1.351786
C    -6.820742 1.006066 0.761271
C    -6.955555 -0.108702 -0.049115
C    0.104931 -0.052617 -0.173212
C    -0.940205 0.870232 -0.270430
N    -0.474540 -1.317207 -0.079016
C    -1.913049 -1.246343 -0.110335
C    -1.215055 2.290732 -0.333835
O    -0.503987 3.291232 -0.418296
O    -2.629022 -2.235754 -0.064135
C    -3.326877 3.634385 -0.447261
C    0.171277 -2.614470 -0.000016
H    -0.635808 -3.350041 0.017917
H    0.765344 -2.715007 0.914146
H    0.808327 -2.801453 -0.870494
H    -3.656823 4.035734 0.518148
H    -4.194635 3.526704 -1.102738
H    -2.610465 4.334019 -0.882044
N    -2.644356 2.361501 -0.300706
C    -2.180463 0.175009 -0.221366
C    -3.218981 1.092455 -0.242530
C    4.041081 0.290764 -0.075993
C    3.458413 1.539592 -0.236996
S    2.800195 -0.945401 0.017791
H    1.427371 2.394801 -0.402012
H    4.049302 2.442162 -0.317445
C    2.053654 1.515207 -0.285261
C    1.509983 0.240495 -0.162004
C    8.312394 -0.770675 0.192268
C    7.872194 0.579330 0.020748
C    7.275609 -1.698945 0.267811
N    6.405242 2.265939 -0.231355
N    7.673481 2.652564 -0.241565
N    8.597688 1.714607 -0.093046
C    8.031584 4.058702 -0.333874
H    7.515432 -2.749922 0.400860
H    5.191960 -2.167130 0.254699
H    7.272044 4.565534 -0.929072
H    8.073772 4.501802 0.665840
H    9.009125 4.130700 -0.810543
C    5.911367 -1.356450 0.181922
C    6.490246 0.927559 -0.066444
C    5.449755 -0.051711 0.011978
C    11.891504 -2.375143 0.493497
C    12.061862 -1.025029 0.350565
S    10.216035 -2.813987 0.483272
H    10.755114 0.752035 0.108916
H    13.034275 -0.544902 0.331605
C    10.832434 -0.320352 0.229957
C    9.718754 -1.135789 0.281154
H    12.647590 -3.140898 0.604168
