71
DPPBTZ-torsion-2-12
C    -8.169952 -0.865367 -0.368587
C    -9.439812 -0.538493 0.204584
C    -8.177641 -1.969540 -1.216032
N    -11.653690 -0.758966 0.576782
N    -11.095801 0.257982 1.219199
N    -9.791670 0.453028 1.054748
C    -11.867615 1.087719 2.129685
H    -7.245481 -2.290639 -1.672381
H    -9.255313 -3.565757 -2.185575
H    -12.912073 1.041480 1.822731
H    -11.490617 2.109249 2.070943
H    -11.765286 0.716670 3.154135
C    -9.346621 -2.718757 -1.511756
C    -10.609980 -1.298091 -0.094991
C    -10.574206 -2.406799 -0.968704
H    -11.470630 -2.976163 -1.189412
C    -4.642019 0.883665 -0.074943
C    -5.478762 1.441594 0.873020
S    -5.477616 -0.365468 -0.966861
H    -7.578285 1.218279 1.526788
H    -5.150397 2.203383 1.571441
C    -6.784738 0.901285 0.862990
C    -6.963448 -0.097521 -0.077956
C    0.108003 -0.062144 -0.151144
C    -0.936529 0.859678 -0.261601
N    -0.470524 -1.325578 -0.036045
C    -1.909977 -1.255794 -0.063398
C    -1.212985 2.279147 -0.347184
O    -0.502578 3.279264 -0.443348
O    -2.626218 -2.242402 0.007548
C    -3.338232 3.612583 -0.464825
C    0.175927 -2.620637 0.068831
H    -0.631014 -3.355797 0.104021
H    0.772046 -2.701990 0.983588
H    0.810995 -2.825947 -0.798972
H    -3.726260 3.980237 0.491955
H    -4.168956 3.512099 -1.168375
H    -2.610202 4.332516 -0.843315
N    -2.642987 2.346773 -0.317008
C    -2.176810 0.163955 -0.199648
C    -3.213716 1.078350 -0.241617
C    4.044241 0.284119 -0.069759
C    3.460383 1.530765 -0.242803
S    2.804664 -0.951638 0.042291
H    1.428125 2.382711 -0.411066
H    4.050450 2.432702 -0.335370
C    2.055439 1.504913 -0.286080
C    1.513203 0.231382 -0.146477
C    8.317233 -0.771482 0.195116
C    7.875480 0.576325 0.010799
C    7.281410 -1.699623 0.284221
N    6.406473 2.259171 -0.254106
N    7.674404 2.646505 -0.272823
N    8.599760 1.710821 -0.117579
C    8.031190 4.051842 -0.381383
H    7.522434 -2.748953 0.427639
H    5.198059 -2.169298 0.283287
H    7.269311 4.551746 -0.979437
H    8.076378 4.505621 0.613393
H    9.007089 4.119375 -0.862044
C    5.916630 -1.358946 0.199424
C    6.493001 0.922675 -0.075291
C    5.453574 -0.056440 0.017166
C    11.898484 -2.370286 0.500087
C    12.067383 -1.021558 0.342930
S    10.223355 -2.810404 0.500124
H    10.758514 0.752039 0.087871
H    13.039374 -0.540983 0.315731
C    10.837037 -0.319013 0.219493
C    9.724155 -1.134697 0.282823
H    12.655517 -3.134353 0.615842
