71
DPPBTZ-torsion-3-11
C    -8.254963 -1.116641 -0.322793
C    -9.421373 -0.382205 0.065319
C    -8.511813 -2.364655 -0.886281
N    -11.630172 -0.005216 0.325203
N    -10.859127 0.988147 0.744288
N    -9.543798 0.840632 0.629100
C    -11.426781 2.170177 1.372960
H    -7.676564 -2.982704 -1.203489
H    -9.920032 -3.868386 -1.521320
H    -12.452789 2.276555 1.022165
H    -10.826997 3.035324 1.088688
H    -11.415540 2.057187 2.461278
C    -9.818623 -2.884455 -1.072645
C    -10.732394 -0.912096 -0.125224
C    -10.945948 -2.181942 -0.703795
H    -11.947792 -2.573172 -0.843994
C    -4.402423 -0.242296 -0.084389
C    -5.129201 0.816308 0.448482
S    -5.499211 -1.506123 -0.633434
H    -7.241958 1.336606 0.788530
H    -4.642513 1.703783 0.842464
C    -6.522167 0.619267 0.417189
C    -6.908798 -0.590640 -0.136845
C    0.130457 1.297589 0.283641
C    -0.749828 0.290219 -0.056306
N    -0.624539 2.365661 0.759776
C    -2.024229 2.061062 0.761001
C    -0.795852 -1.038557 -0.638027
O    0.061997 -1.816334 -1.023229
O    -2.877273 2.849801 1.166462
C    -2.646314 -2.618588 -1.198360
C    -0.119558 3.618602 1.291277
H    -0.959175 4.110739 1.785491
H    0.258463 4.273463 0.498714
H    0.683312 3.436764 2.011729
H    -3.270444 -2.504559 -2.090682
H    -3.193558 -3.190348 -0.441948
H    -1.736800 -3.160056 -1.467659
N    -2.206707 -1.334788 -0.683926
C    -2.079701 0.716399 0.223531
C    -2.969059 -0.284830 -0.173631
C    4.028380 0.887439 -0.121914
C    3.625387 1.967978 -0.886778
S    2.655391 0.210136 0.734805
H    1.746052 3.031770 -1.350910
H    4.315555 2.528049 -1.503601
C    2.241756 2.246720 -0.789976
C    1.567151 1.403692 0.068562
C    8.064862 -0.830239 0.349923
C    7.833085 0.381542 -0.373642
C    6.910998 -1.402838 0.878968
N    6.641208 2.072464 -1.259319
N    7.941830 2.145118 -1.507510
N    8.711705 1.186150 -1.013012
C    8.510211 3.273334 -2.226415
H    6.989728 -2.328179 1.442337
H    4.793209 -1.395245 1.170327
H    7.773901 3.623679 -2.949852
H    8.754379 4.080037 -1.528296
H    9.415948 2.934927 -2.729493
C    5.621346 -0.852502 0.723409
C    6.528163 0.940248 -0.529470
C    5.363620 0.325865 0.027981
C    11.340819 -2.864560 1.134685
C    11.707923 -1.770162 0.400471
S    9.631086 -2.905847 1.410702
H    10.688693 -0.032424 -0.530547
H    12.733371 -1.557546 0.117900
C    10.605481 -0.943039 0.047822
C    9.391986 -1.408017 0.514557
H    11.969082 -3.650904 1.531208
