71
DPPBTZ-torsion-2-32
C    -8.452244 0.471621 0.539812
C    -9.517169 -0.447730 0.273238
C    -8.829904 1.612872 1.243373
N    -11.634601 -1.223811 0.324546
N    -10.779423 -2.026041 -0.294127
N    -9.511518 -1.636834 -0.370632
C    -11.223496 -3.257109 -0.927623
H    -8.077163 2.359065 1.482016
H    -10.357235 2.780973 2.218472
H    -12.140095 -3.577006 -0.433042
H    -10.439547 -4.006710 -0.815273
H    -11.415916 -3.083407 -1.990767
C    -10.158734 1.862148 1.674227
C    -10.851101 -0.189697 0.709210
C    -11.188197 0.980517 1.423589
H    -12.205715 1.164598 1.750943
C    -4.594113 0.341967 -0.319392
C    -5.197357 -0.785222 -0.851404
S    -5.791760 1.354414 0.471291
H    -7.217929 -1.668461 -0.935765
H    -4.630126 -1.550639 -1.367397
C    -6.584744 -0.855506 -0.605985
C    -7.084095 0.223029 0.103331
C    0.169838 -0.308113 -0.328421
C    -0.912034 0.571104 -0.440526
N    -0.359872 -1.596944 -0.256042
C    -1.797186 -1.583145 -0.323204
C    -1.251506 1.976833 -0.514658
O    -0.583562 3.006227 -0.591497
O    -2.477545 -2.601360 -0.329798
C    -3.409579 3.232471 -0.688872
C    0.337730 -2.867740 -0.185230
H    -0.437755 -3.636594 -0.201265
H    0.913589 -2.961187 0.741229
H    1.002796 -3.010717 -1.042963
H    -3.898543 3.559224 0.235106
H    -4.161575 3.136358 -1.476876
H    -2.667354 3.981080 -0.972947
N    -2.686671 1.984876 -0.509450
C    -2.118658 -0.175272 -0.412653
C    -3.202678 0.691051 -0.463865
C    4.084236 0.199314 -0.135366
C    3.453480 1.423043 -0.308396
S    2.894183 -1.088247 -0.074196
H    1.393364 2.192946 -0.520847
H    4.007782 2.349792 -0.372893
C    2.052738 1.339957 -0.390666
C    1.560086 0.042971 -0.283389
C    8.388423 -0.682553 0.235154
C    7.896337 0.647904 0.052136
C    7.389827 -1.653387 0.286992
N    6.366493 2.271660 -0.236074
N    7.617331 2.711058 -0.216567
N    8.576192 1.812552 -0.045424
C    7.918328 4.130983 -0.301298
H    7.670207 -2.693406 0.426721
H    5.328510 -2.208369 0.225283
H    7.152281 4.605827 -0.914269
H    7.918663 4.575040 0.698880
H    8.902820 4.244067 -0.755146
C    6.014916 -1.368322 0.168527
C    6.503500 0.938012 -0.068040
C    5.503234 -0.083958 -0.013557
C    12.023269 -2.136113 0.622535
C    12.140486 -0.780159 0.481510
S    10.368231 -2.644473 0.573894
H    10.766814 0.940723 0.206605
H    13.092211 -0.259888 0.484540
C    10.885914 -0.127434 0.331111
C    9.806279 -0.988568 0.357545
H    12.807832 -2.869574 0.752112
