71
DPPBTZ-torsion-4-31
C    -8.549801 0.478311 0.115502
C    -9.523907 -0.539123 -0.143556
C    -9.080946 1.732588 0.409408
N    -11.595622 -1.401466 -0.373787
N    -10.620356 -2.278662 -0.565485
N    -9.369208 -1.846528 -0.451666
C    -10.905307 -3.649881 -0.956468
H    -8.404267 2.557150 0.615425
H    -10.792917 3.011154 0.694803
H    -11.908770 -3.895878 -0.610514
H    -10.163961 -4.302577 -0.494520
H    -10.853012 -3.747523 -2.045110
C    -10.473200 2.000860 0.456259
C    -10.922598 -0.261099 -0.094705
C    -11.416301 1.025838 0.210514
H    -12.482050 1.224193 0.245436
C    -4.591986 0.379651 0.148591
C    -5.064034 -0.889326 -0.169139
S    -5.948298 1.476299 0.397675
H    -7.007900 -1.886920 -0.441496
H    -4.390324 -1.718338 -0.362716
C    -6.467593 -0.978239 -0.211207
C    -7.118515 0.212022 0.070917
C    0.192818 -0.204318 0.069659
C    -0.908114 0.634714 0.262398
N    -0.314526 -1.463369 -0.246808
C    -1.749579 -1.466125 -0.266190
C    -1.262062 1.995969 0.593668
O    -0.605413 3.002411 0.853418
O    -2.405147 -2.473949 -0.522314
C    -3.415592 3.221016 0.865492
C    0.405882 -2.689652 -0.537317
H    -0.355592 -3.448278 -0.728945
H    1.020475 -3.005759 0.311758
H    1.037972 -2.584832 -1.424957
H    -4.050877 3.113083 1.750436
H    -4.026621 3.541961 0.015788
H    -2.653002 3.976996 1.063091
N    -2.696571 1.994446 0.572181
C    -2.104094 -0.104657 0.064472
C    -3.205009 0.735139 0.255508
C    4.102155 0.327455 0.213878
C    3.457491 1.510573 0.522038
S    2.939281 -0.938418 -0.098823
H    1.377546 2.243815 0.706338
H    3.998333 2.419013 0.759261
C    2.052411 1.419926 0.494999
C    1.581047 0.150047 0.176215
C    8.401862 -0.630608 0.224266
C    7.888408 0.567264 -0.366591
C    7.430337 -1.447769 0.797707
N    6.316700 2.059011 -0.985519
N    7.549308 2.397949 -1.336998
N    8.531730 1.566604 -1.012092
C    7.807114 3.597845 -2.116749
H    7.734094 -2.377892 1.269466
H    5.374788 -1.838835 1.290577
H    7.001071 4.304786 -1.922494
H    8.768294 4.010248 -1.808468
H    7.836537 3.352886 -3.182823
C    6.051248 -1.138039 0.810128
C    6.496675 0.878970 -0.352355
C    5.531558 0.028741 0.261833
C    12.055184 -2.059871 0.539815
C    12.138334 -0.876509 -0.141575
S    10.420781 -2.435420 0.973873
H    10.728201 0.689772 -0.837899
H    13.072337 -0.460475 -0.503577
C    10.873441 -0.251526 -0.324338
C    9.821332 -0.960998 0.219441
H    12.853768 -2.735854 0.814801
