71
DPPBTZ-torsion-3-27
C    -8.391729 -0.878062 0.264982
C    -9.445791 -0.275751 -0.494227
C    -8.798899 -1.897530 1.122702
N    -11.567277 0.028672 -1.197733
N    -10.686035 0.834417 -1.772960
N    -9.413587 0.719889 -1.408454
C    -11.103556 1.856404 -2.719584
H    -8.055621 -2.401800 1.733851
H    -10.368456 -3.127019 1.942858
H    -12.048831 1.539870 -3.159209
H    -10.332838 1.955618 -3.484574
H    -11.234494 2.812670 -2.204132
C    -10.146583 -2.322876 1.247302
C    -10.798870 -0.709071 -0.363073
C    -11.166003 -1.749303 0.517764
H    -12.198200 -2.070108 0.607575
C    -4.500110 -0.168226 0.374458
C    -5.082175 0.704462 -0.537634
S    -5.733789 -1.205951 1.083166
H    -7.092697 1.137241 -1.325816
H    -4.493842 1.432171 -1.089269
C    -6.474741 0.545447 -0.663662
C    -7.004184 -0.449075 0.143117
C    0.140060 1.035118 0.164030
C    -0.845830 0.241679 0.703906
N    -0.464618 1.891563 -0.750303
C    -1.879120 1.674006 -0.816902
C    -1.055405 -0.835421 1.656186
O    -0.310136 -1.467362 2.384861
O    -2.620793 2.323506 -1.553946
C    -3.069950 -2.095160 2.426109
C    0.195397 2.904888 -1.552859
H    -0.586634 3.409174 -2.123123
H    0.917718 2.455716 -2.242415
H    0.715500 3.630870 -0.920018
H    -3.546484 -2.876825 1.825623
H    -3.800348 -1.678152 3.127043
H    -2.243944 -2.533374 2.990570
N    -2.478738 -1.064876 1.592463
C    -2.101440 0.601654 0.132378
C    -3.097113 -0.207102 0.683517
C    4.080948 0.688366 0.329041
C    3.680675 1.580221 1.303734
S    2.680905 0.089720 -0.550576
H    1.784810 2.445054 2.054521
H    4.385319 2.065287 1.966036
C    2.276300 1.785213 1.347831
C    1.584329 1.054844 0.413942
C    8.150166 -0.690095 -0.683476
C    7.907803 0.290266 0.329242
C    6.995439 -1.160989 -1.302184
N    6.698823 1.662577 1.640370
N    8.006230 1.735778 1.848586
N    8.785360 0.952494 1.116341
C    8.556545 2.581868 2.894627
H    7.081354 -1.912981 -2.081295
H    4.869266 -1.163398 -1.522896
H    7.912493 3.454725 3.002005
H    8.595167 2.033110 3.840704
H    9.563120 2.877639 2.599088
C    5.695596 -0.719235 -0.975024
C    6.592590 0.737751 0.660050
C    5.427341 0.235783 0.001063
C    11.458194 -2.315363 -2.063746
C    11.816685 -1.441168 -1.074540
S    9.741894 -2.347690 -2.297879
H    10.777515 -0.052471 0.310202
H    12.844262 -1.271621 -0.771322
C    10.702196 -0.780065 -0.487042
C    9.488221 -1.151445 -1.029690
H    12.096094 -2.943625 -2.670906
