71
DPPBTZ-torsion-2-34
C    -8.523673 0.515120 0.288403
C    -9.532282 -0.493920 0.163647
C    -9.000223 1.774519 0.646539
N    -11.623588 -1.338106 0.212376
N    -10.689932 -2.224296 -0.104425
N    -9.431077 -1.803132 -0.158745
C    -11.035899 -3.593826 -0.449300
H    -8.295006 2.593210 0.759189
H    -10.648070 3.068818 1.153021
H    -11.986788 -3.829929 0.027357
H    -10.245599 -4.252039 -0.087092
H    -11.129137 -3.694713 -1.534918
C    -10.371645 2.055347 0.876816
C    -10.909715 -0.203309 0.396544
C    -11.347435 1.088480 0.761021
H    -12.397365 1.296399 0.936523
C    -4.595947 0.375484 -0.174912
C    -5.116277 -0.885101 -0.440866
S    -5.897626 1.489143 0.228819
H    -7.090251 -1.862806 -0.468276
H    -4.478360 -1.726615 -0.688432
C    -6.515647 -0.960343 -0.306948
C    -7.113168 0.235886 0.055551
C    0.173881 -0.282492 -0.198519
C    -0.911856 0.597330 -0.259363
N    -0.356511 -1.572095 -0.162253
C    -1.791507 -1.555335 -0.203435
C    -1.245925 2.003948 -0.297453
O    -0.574282 3.032747 -0.340951
O    -2.468280 -2.579897 -0.220610
C    -3.386492 3.283277 -0.392171
C    0.341358 -2.844675 -0.132955
H    -0.434062 -3.613263 -0.150410
H    0.935753 -2.957157 0.779469
H    0.988970 -2.968477 -1.006802
H    -3.927577 3.521970 0.529736
H    -4.086961 3.280107 -1.232353
H    -2.621648 4.045037 -0.555886
N    -2.680738 2.018114 -0.291518
C    -2.119005 -0.147939 -0.244998
C    -3.205909 0.726972 -0.266516
C    4.093408 0.211859 -0.080037
C    3.461279 1.442924 -0.180300
S    2.901697 -1.075468 -0.047755
H    1.398957 2.224751 -0.306339
H    4.015943 2.371039 -0.215846
C    2.058766 1.365782 -0.230694
C    1.565003 0.065991 -0.170694
C    8.403219 -0.692682 0.139057
C    7.909883 0.646081 0.038634
C    7.403895 -1.663847 0.163612
N    6.377213 2.284344 -0.126054
N    7.629138 2.720882 -0.113561
N    8.589836 1.813590 -0.013455
C    7.931254 4.142969 -0.129983
H    7.685233 -2.710108 0.241023
H    5.340476 -2.212842 0.121757
H    7.150881 4.650647 -0.696825
H    7.958288 4.532944 0.892147
H    8.904071 4.279259 -0.602281
C    6.027195 -1.371606 0.093679
C    6.515199 0.943529 -0.032325
C    5.514063 -0.078837 -0.007674
C    12.043156 -2.168359 0.360803
C    12.159962 -0.806992 0.288564
S    10.386193 -2.671749 0.325733
H    10.783934 0.927396 0.138224
H    13.112666 -0.288542 0.295805
C    10.903590 -0.145958 0.203327
C    9.822926 -1.006170 0.210616
H    12.828938 -2.908435 0.432379
