71
DPPBTZ-torsion-1-36
C    -8.555359 0.529413 0.000286
C    -9.545285 -0.505598 0.001920
C    -9.067125 1.825545 -0.003478
N    -11.630319 -1.366522 0.009568
N    -10.668537 -2.278805 0.017519
N    -9.410777 -1.850940 0.009342
C    -10.975637 -3.699118 -0.034434
H    -8.377659 2.665109 -0.007083
H    -10.759284 3.161021 -0.005532
H    -11.976318 -3.841193 0.372494
H    -10.234785 -4.235303 0.559412
H    -10.941687 -4.052048 -1.069658
C    -10.455198 2.118262 -0.002825
C    -10.939683 -0.202798 0.002344
C    -11.413414 1.127118 0.001370
H    -12.476083 1.344185 0.002585
C    -4.598936 0.381783 0.000838
C    -5.090893 -0.919236 0.001889
S    -5.938398 1.526595 -0.000330
H    -7.050196 -1.923450 0.002465
H    -4.430021 -1.780558 0.002705
C    -6.495740 -0.994331 0.001709
C    -7.128279 0.238647 0.000350
C    0.177358 -0.277833 0.001951
C    -0.911420 0.600298 0.001196
N    -0.351135 -1.568301 0.002833
C    -1.785398 -1.552888 0.002684
C    -1.244213 2.006730 0.000090
O    -0.571842 3.036058 -0.000541
O    -2.457996 -2.581836 0.003397
C    -3.378538 3.293912 -0.001130
C    0.348719 -2.840242 0.003888
H    -0.425612 -3.609967 0.004383
H    0.970058 -2.956553 0.897616
H    0.970272 -2.957932 -0.889508
H    -4.000208 3.411477 0.892207
H    -3.999872 3.410287 -0.894858
H    -2.604141 4.063578 -0.001490
N    -2.678692 2.022006 -0.000149
C    -2.118282 -0.146156 0.001609
C    -3.206817 0.731599 0.000766
C    4.099033 0.216252 0.002026
C    3.464060 1.449866 0.001241
S    2.908663 -1.072808 0.002245
H    1.398992 2.234238 0.000883
H    4.017312 2.379515 0.000719
C    2.060605 1.373429 0.001241
C    1.568547 0.071557 0.001874
C    8.413426 -0.692879 0.001939
C    7.917536 0.648696 -0.004283
C    7.415110 -1.665321 0.011304
N    6.380765 2.291337 -0.017413
N    7.632527 2.728340 -0.029632
N    8.595777 1.818277 -0.017856
C    7.934794 4.149569 0.021083
H    7.698497 -2.713865 0.019384
H    5.351232 -2.214146 0.019943
H    7.133600 4.686744 -0.486433
H    8.001370 4.482504 1.061418
H    8.888841 4.313122 -0.479969
C    6.036925 -1.371653 0.011624
C    6.521355 0.947592 -0.003954
C    5.521153 -0.075989 0.002678
C    12.058267 -2.173250 -0.002017
C    12.173086 -0.809815 -0.000658
S    10.400811 -2.676363 -0.001860
H    10.793451 0.928228 0.001683
H    13.125693 -0.291131 -0.000540
C    10.914786 -0.146912 0.000648
C    9.834634 -1.007774 0.000450
H    12.845705 -2.915026 -0.003340
