71
DPPBTZ-torsion-5-33
C    -8.555076 0.532180 0.024877
C    -9.546089 -0.501440 -0.001881
C    -9.065451 1.828254 0.064212
N    -11.632050 -1.359779 -0.027358
N    -10.671262 -2.272486 -0.061858
N    -9.413035 -1.846254 -0.045357
C    -10.979759 -3.693369 -0.046672
H    -8.375118 2.666757 0.088590
H    -10.756194 3.164892 0.105710
H    -11.981337 -3.823715 -0.455316
H    -10.944283 -4.073409 0.978862
H    -10.240545 -4.214475 -0.655777
C    -10.453216 2.122275 0.074610
C    -10.940159 -0.197351 0.009083
C    -11.412477 1.132541 0.046425
H    -12.474918 1.350611 0.053492
C    -4.598825 0.380832 0.008915
C    -5.092082 -0.919320 -0.021485
S    -5.937107 1.526568 0.040951
H    -7.052381 -1.921404 -0.040206
H    -4.432082 -1.781003 -0.044633
C    -6.497008 -0.993077 -0.019031
C    -7.128283 0.240115 0.013222
C    0.176717 -0.282883 -0.024503
C    -0.911085 0.595882 0.001731
N    -0.352991 -1.572461 -0.055275
C    -1.787252 -1.555789 -0.049589
C    -1.242434 2.002198 0.038262
O    -0.569068 3.030546 0.061893
O    -2.460849 -2.583831 -0.072993
C    -3.375481 3.290904 0.078581
C    0.345606 -2.844632 -0.089826
H    -0.429497 -3.613405 -0.106107
H    0.970389 -2.984493 0.798099
H    0.963468 -2.939793 -0.988452
H    -3.993886 3.385476 0.976902
H    -3.999828 3.431396 -0.809566
H    -2.600299 4.059587 0.095748
N    -2.676953 2.018771 0.043598
C    -2.118745 -0.149238 -0.012817
C    -3.206334 0.729265 0.012997
C    4.098719 0.207189 -0.026899
C    3.465563 1.440911 0.007740
S    2.907266 -1.080126 -0.056232
H    1.401173 2.227229 0.036325
H    4.020110 2.369579 0.030196
C    2.061780 1.366024 0.011201
C    1.568442 0.065207 -0.020816
C    8.407753 -0.699734 -0.077853
C    7.914626 0.639676 -0.046098
C    7.415772 -1.676407 -0.079968
N    6.383215 2.284879 -0.006201
N    7.637761 2.717478 -0.012129
N    8.599062 1.805413 -0.030250
C    7.943409 4.136101 0.078202
H    7.707675 -2.722032 -0.112678
H    5.349308 -2.222625 -0.072462
H    7.171790 4.688685 -0.458318
H    7.959933 4.450121 1.126326
H    8.922234 4.300528 -0.371638
C    6.036268 -1.381136 -0.062235
C    6.519882 0.940712 -0.031529
C    5.521519 -0.085237 -0.040379
C    12.059629 -2.137540 0.158948
C    12.146360 -0.900604 -0.420757
S    10.424996 -2.537708 0.570322
H    10.741593 0.726109 -0.975831
H    13.081213 -0.461082 -0.751578
C    10.883557 -0.256991 -0.544999
C    9.833166 -1.004402 -0.054588
H    12.858053 -2.832627 0.381784
