71
DPPBTZ-torsion-1-8
C    -8.584134 -0.031769 -0.736582
C    -9.459108 -0.248612 0.363930
C    -9.172032 0.467569 -1.887326
N    -11.429198 -0.275022 1.457563
N    -10.394971 -0.681572 2.184805
N    -9.197040 -0.700170 1.611716
C    -10.578163 -1.158557 3.546466
H    -8.544384 0.657620 -2.753230
H    -10.957813 1.113688 -2.922094
H    -11.427621 -0.631256 3.980340
H    -9.664828 -0.953653 4.104802
H    -10.774329 -2.235123 3.542542
C    -10.568662 0.731454 -1.982750
C    -10.856542 0.017763 0.266372
C    -11.426525 0.517194 -0.925802
H    -12.490172 0.720241 -0.994641
C    -4.623375 -0.028345 -0.488024
C    -5.048785 -1.343366 -0.625556
S    -6.017103 1.050226 -0.466525
H    -6.961281 -2.426890 -0.824777
H    -4.347685 -2.171430 -0.666346
C    -6.453060 -1.475861 -0.710354
C    -7.130741 -0.280712 -0.633244
C    0.176238 -0.470562 -0.286031
C    -0.952152 0.354061 -0.263384
N    -0.287109 -1.777727 -0.435345
C    -1.718767 -1.826424 -0.512270
C    -1.354426 1.737152 -0.151699
O    -0.736828 2.791843 -0.018748
O    -2.338852 -2.879643 -0.645140
C    -3.550988 2.918580 -0.146366
C    0.473977 -3.011360 -0.515267
H    -0.260451 -3.811274 -0.628691
H    1.055205 -3.185165 0.395958
H    1.144266 -3.015179 -1.380769
H    -4.223999 2.916525 0.717019
H    -4.130152 3.095998 -1.058362
H    -2.818738 3.719643 -0.027296
N    -2.787336 1.686932 -0.230149
C    -2.120109 -0.442973 -0.398881
C    -3.247810 0.380541 -0.378178
C    4.064492 0.194741 -0.025980
C    3.370320 1.393006 0.055738
S    2.940633 -1.139648 -0.212951
H    1.271405 2.081197 0.017471
H    3.876213 2.341957 0.173593
C    1.973807 1.254595 -0.027841
C    1.547486 -0.061373 -0.177431
C    8.413352 -0.517975 0.123294
C    7.852750 0.794565 0.216509
C    7.465055 -1.530014 -0.013457
N    6.239316 2.361018 0.274550
N    7.467017 2.852230 0.371839
N    8.472239 1.988913 0.350263
C    7.695885 4.273877 0.572615
H    7.799026 -2.560858 -0.088650
H    5.432806 -2.168045 -0.168934
H    6.895701 4.821590 0.074856
H    7.693631 4.507400 1.641750
H    8.664675 4.527161 0.142142
C    6.075677 -1.299130 -0.060575
C    6.445222 1.029814 0.168914
C    5.497696 -0.032926 0.024518
C    12.122667 -1.827681 0.178427
C    12.169638 -0.467181 0.316066
S    10.494204 -2.401396 0.039470
H    10.707314 1.199359 0.408258
H    13.094196 0.090763 0.418005
C    10.881594 0.135928 0.311380
C    9.846749 -0.767837 0.169753
H    12.944921 -2.530076 0.149654
