71
DPPBTZ-torsion-1-26
C    -8.606733 -0.467020 0.694921
C    -9.362180 0.012947 -0.411195
C    -9.336485 -0.818219 1.818651
N    -11.224145 0.599035 -1.536689
N    -10.100532 0.734997 -2.231345
N    -8.956746 0.413919 -1.637461
C    -10.113868 1.283278 -3.578285
H    -8.804566 -1.195137 2.687360
H    -11.257002 -0.993897 2.798299
H    -11.066059 1.024551 -4.041088
H    -9.280622 0.849669 -4.131176
H    -10.004783 2.371479 -3.540434
C    -10.755208 -0.701988 1.880193
C    -10.781888 0.128534 -0.346914
C    -11.496136 -0.234253 0.816849
H    -12.576720 -0.145861 0.859652
C    -4.645088 -0.319355 0.481662
C    -5.042865 -1.643285 0.349403
S    -6.057700 0.710926 0.700660
H    -6.934268 -2.781756 0.324188
H    -4.326517 -2.446037 0.203590
C    -6.443010 -1.819884 0.422001
C    -7.142530 -0.651315 0.622772
C    0.161229 -0.613917 0.189046
C    -0.983377 0.175396 0.332593
N    -0.275438 -1.933584 0.072925
C    -1.705502 -2.025717 0.138539
C    -1.413483 1.544206 0.502211
O    -0.817416 2.616492 0.582262
O    -2.304134 -3.096286 0.054919
C    -3.633086 2.657843 0.735136
C    0.510192 -3.142131 -0.099365
H    -0.207793 -3.963080 -0.150875
H    1.183902 -3.308140 0.747364
H    1.091061 -3.115451 -1.026856
H    -4.207018 2.640793 1.667241
H    -4.314106 2.810216 -0.108275
H    -2.917856 3.481960 0.771597
N    -2.844580 1.449965 0.571521
C    -2.134636 -0.656216 0.306636
C    -3.278327 0.131415 0.454737
C    4.034655 0.168244 0.072588
C    3.316406 1.344387 0.231269
S    2.938188 -1.198800 -0.014236
H    1.204221 1.968506 0.403875
H    3.802958 2.307659 0.306762
C    1.923161 1.163969 0.283259
C    1.523663 -0.163610 0.165544
C    8.396582 -0.412177 -0.209730
C    7.808941 0.881988 -0.049917
C    7.470005 -1.451798 -0.263029
N    6.162966 2.397962 0.180054
N    7.379129 2.925823 0.161813
N    8.402690 2.093812 0.034112
C    7.584185 4.352433 0.352887
H    7.825585 -2.471424 -0.380309
H    5.452235 -2.150661 -0.225898
H    6.720731 4.878261 -0.054494
H    7.684799 4.578004 1.418992
H    8.495435 4.639210 -0.171938
C    6.076416 -1.263211 -0.172295
C    6.397113 1.074391 0.042171
C    5.472059 -0.015844 -0.019182
C    12.130861 -1.608444 -0.528282
C    12.150534 -0.247980 -0.383844
S    10.514411 -2.230718 -0.512788
H    10.655235 1.372615 -0.134660
H    13.063611 0.337283 -0.367621
C    10.850817 0.315591 -0.257522
C    9.834456 -0.618455 -0.305532
H    12.966911 -2.285259 -0.643293
