71
DPPBTZ-torsion-4-3
C    -8.552034 0.511547 -0.076496
C    -9.536594 -0.514653 0.093143
C    -9.070427 1.790017 -0.272926
N    -11.617030 -1.371896 0.253065
N    -10.650550 -2.268763 0.390553
N    -9.395138 -1.842602 0.304520
C    -10.950849 -3.681489 0.558873
H    -8.385364 2.621684 -0.411705
H    -10.769368 3.103356 -0.461864
H    -11.946837 -3.763471 0.992952
H    -10.201581 -4.118168 1.219870
H    -10.925034 -4.188016 -0.410752
C    -10.459935 2.074360 -0.303003
C    -10.932454 -0.220426 0.061338
C    -11.412976 1.092020 -0.137907
H    -12.476685 1.302865 -0.159175
C    -4.595048 0.379712 -0.092303
C    -5.080460 -0.907927 0.109616
S    -5.940046 1.506612 -0.252423
H    -7.034732 -1.907460 0.280816
H    -4.415376 -1.756966 0.233782
C    -6.484915 -0.987131 0.134662
C    -7.123507 0.229316 -0.045992
C    0.184119 -0.254149 -0.034596
C    -0.908607 0.609261 -0.159555
N    -0.337287 -1.531310 0.167523
C    -1.771933 -1.521798 0.177734
C    -1.248363 1.997661 -0.372483
O    -0.581120 3.016953 -0.538245
O    -2.438784 -2.541558 0.340516
C    -3.389045 3.261758 -0.550453
C    0.369529 -2.785357 0.354973
H    -0.400451 -3.549779 0.476883
H    0.997310 -2.763519 1.251531
H    0.985958 -3.033398 -0.515056
H    -4.003270 3.513131 0.320118
H    -4.018962 3.237153 -1.445414
H    -2.618522 4.024950 -0.676615
N    -2.682870 2.007643 -0.360683
C    -2.111980 -0.133065 -0.034460
C    -3.204550 0.730390 -0.158558
C    4.100196 0.249776 -0.127793
C    3.463850 1.464961 -0.320874
S    2.920856 -1.026997 0.080952
H    1.393410 2.230411 -0.442198
H    4.013257 2.386326 -0.466219
C    2.059761 1.384240 -0.305079
C    1.574581 0.095520 -0.101355
C    8.407870 -0.670768 -0.136910
C    7.904100 0.620874 0.216691
C    7.421298 -1.589964 -0.488537
N    6.348348 2.203396 0.598122
N    7.591430 2.606524 0.822776
N    8.565717 1.730667 0.616015
C    7.880075 3.977821 1.210383
H    7.715056 -2.594235 -0.780158
H    5.359200 -2.081496 -0.805082
H    7.013009 4.367925 1.742874
H    8.760799 3.975036 1.852920
H    8.074131 4.586379 0.321784
C    6.041579 -1.293987 -0.498509
C    6.509147 0.920326 0.206756
C    5.523912 -0.045781 -0.161819
C    12.058549 -2.128081 -0.312876
C    12.160040 -0.823009 0.085088
S    10.409723 -2.593064 -0.569196
H    10.766518 0.856292 0.489302
H    13.105404 -0.335803 0.298186
C    10.898118 -0.174964 0.189361
C    9.829169 -0.988647 -0.130464
H    12.851202 -2.846984 -0.471545
