71
DPPBTZ-torsion-4-15
C    -8.520238 0.532844 0.082917
C    -9.469916 -0.528785 -0.066515
C    -9.081088 1.792650 0.283287
N    -11.520302 -1.463237 -0.173660
N    -10.524390 -2.326782 -0.314692
N    -9.284118 -1.852872 -0.267672
C    -10.777922 -3.733250 -0.582596
H    -8.424326 2.649792 0.402466
H    -10.822789 3.043942 0.501628
H    -11.766126 -3.976221 -0.193283
H    -10.008187 -4.324424 -0.085565
H    -10.746425 -3.920975 -1.660184
C    -10.479186 2.026102 0.341113
C    -10.874704 -0.285594 -0.007400
C    -11.398781 1.008679 0.200797
H    -12.468819 1.180385 0.244617
C    -4.561335 0.544298 0.031790
C    -5.003255 -0.758125 -0.174699
S    -5.943215 1.619916 0.226435
H    -6.922834 -1.826390 -0.322626
H    -4.310064 -1.581152 -0.318659
C    -6.404220 -0.888070 -0.176790
C    -7.083198 0.302626 0.026440
C    0.236368 0.085656 -0.109830
C    -0.884864 0.907685 0.040017
N    -0.241681 -1.207954 -0.314099
C    -1.675602 -1.250765 -0.300789
C    -1.271162 2.280858 0.270309
O    -0.638830 3.322859 0.433173
O    -2.307618 -2.292934 -0.461320
C    -3.452960 3.464770 0.493941
C    0.507366 -2.433476 -0.525684
H    -0.236216 -3.223959 -0.645255
H    1.145946 -2.667698 0.332021
H    1.121032 -2.378236 -1.430506
H    -4.066470 3.410901 1.398969
H    -4.090449 3.699886 -0.364374
H    -2.708611 4.254575 0.613290
N    -2.705038 2.238604 0.282801
C    -2.062546 0.122950 -0.071644
C    -3.183403 0.944780 0.078165
C    4.129437 0.725720 -0.071703
C    3.451385 1.914908 0.151920
S    2.995602 -0.591588 -0.254174
H    1.358888 2.609466 0.307351
H    3.963288 2.853094 0.334449
C    2.052333 1.789503 0.147799
C    1.614850 0.485107 -0.067602
C    8.511527 0.278421 -0.161936
C    7.655306 -0.799089 0.227623
C    7.833877 1.442763 -0.520028
N    5.706464 -1.845817 0.647329
N    6.776277 -2.603227 0.846068
N    7.963686 -2.054182 0.625811
C    6.655963 -3.957187 1.362007
H    8.405828 2.310149 -0.837047
H    6.000479 2.512044 -0.828804
H    5.696125 -4.359014 1.038163
H    7.479302 -4.550164 0.963417
H    6.703026 -3.947727 2.455256
C    6.428520 1.567332 -0.508484
C    6.234422 -0.670315 0.243256
C    5.571819 0.535796 -0.130220
C    12.425189 0.581143 -0.431698
C    12.144350 -0.681834 0.013224
S    10.982782 1.505358 -0.688081
H    10.325197 -1.858802 0.493449
H    12.907521 -1.420170 0.234398
C    10.749674 -0.922945 0.154619
C    9.962951 0.160413 -0.183718
H    13.391535 1.027174 -0.625413
