71
DPPBTZ-torsion-3-34
C    -8.531153 -0.513008 -0.281241
C    -9.523662 0.516119 -0.197625
C    -9.033947 -1.789427 -0.525659
N    -11.606228 1.382175 -0.236230
N    -10.652293 2.277138 -0.020929
N    -9.396842 1.844453 0.020470
C    -10.970912 3.673168 0.231906
H    -8.342165 -2.623753 -0.600357
H    -10.712954 -3.095969 -0.873307
H    -11.935158 3.886099 -0.228566
H    -10.186393 4.291686 -0.205071
H    -11.025121 3.855783 1.309461
C    -10.415701 -2.068350 -0.685040
C    -10.911666 0.227267 -0.358919
C    -11.376159 -1.082346 -0.608382
H    -12.433969 -1.288790 -0.730063
C    -4.588738 -0.395099 0.059322
C    -5.086727 0.892198 0.230876
S    -5.916444 -1.515186 -0.234798
H    -7.045942 1.896765 0.236876
H    -4.432873 1.737877 0.420872
C    -6.487472 0.976213 0.130303
C    -7.110310 -0.236039 -0.120615
C    0.174124 0.240788 0.416648
C    -0.909763 -0.625168 0.262064
N    -0.354247 1.524131 0.550280
C    -1.787900 1.512729 0.496343
C    -1.232803 -2.020041 0.065087
O    -0.555783 -3.043108 0.005962
O    -2.462765 2.533081 0.616279
C    -3.358983 -3.290336 -0.222198
C    0.344539 2.771254 0.805949
H    -0.427825 3.515034 1.011613
H    0.924045 3.098674 -0.063877
H    1.008428 2.683117 1.670853
H    -3.914888 -3.308900 -1.165128
H    -4.042124 -3.499816 0.607124
H    -2.583594 -4.058654 -0.250120
N    -2.665112 -2.028959 -0.035975
C    -2.117782 0.117720 0.302485
C    -3.198383 -0.748403 0.108764
C    4.092724 -0.225214 0.210870
C    3.480159 -1.451754 0.421573
S    2.882847 1.043341 0.116606
H    1.430486 -2.246550 0.633393
H    4.047976 -2.367961 0.513337
C    2.077532 -1.386020 0.501813
C    1.566401 -0.102584 0.345407
C    8.381000 0.705633 -0.221313
C    7.908669 -0.626935 -0.004702
C    7.368906 1.661568 -0.284431
N    6.403556 -2.264227 0.333450
N    7.659930 -2.687373 0.311014
N    8.605004 -1.780117 0.111123
C    7.980831 -4.101049 0.422015
H    7.633826 2.701937 -0.449574
H    5.300838 2.190372 -0.214325
H    7.226783 -4.573389 1.051579
H    7.978219 -4.565638 -0.568799
H    8.970791 -4.191697 0.868984
C    5.999055 1.360960 -0.146145
C    6.521035 -0.932807 0.135344
C    5.506480 0.074266 0.068733
C    11.992576 2.198922 -0.672815
C    12.129015 0.847610 -0.507139
S    10.331358 2.686384 -0.617292
H    10.780951 -0.885503 -0.185676
H    13.087460 0.339793 -0.509811
C    10.884668 0.181527 -0.331742
C    9.793509 1.027732 -0.363830
H    12.766024 2.939956 -0.824254
