71
DPPBTZ-torsion-2-25
C    -8.211610 -0.767465 0.486889
C    -9.455321 -0.529618 -0.179818
C    -8.269358 -1.704718 1.513911
N    -11.656347 -0.794128 -0.597285
N    -11.055923 0.079789 -1.393549
N    -9.758174 0.295929 -1.207744
C    -11.804232 0.828478 -2.389889
H    -7.360751 -1.948408 2.057389
H    -9.407905 -3.095712 2.705061
H    -12.697116 0.255742 -2.638561
H    -11.172999 0.963913 -3.268808
H    -12.089362 1.805942 -1.988856
C    -9.460573 -2.379285 1.890337
C    -10.648209 -1.213125 0.202287
C    -10.661945 -2.155727 1.253562
H    -11.574875 -2.669735 1.534285
C    -4.639758 0.852012 0.016448
C    -5.439738 1.270281 -1.025899
S    -5.520526 -0.229611 1.068366
H    -7.530757 0.987469 -1.690318
H    -5.077546 1.910147 -1.823413
C    -6.759428 0.761480 -0.965880
C    -6.981594 -0.076357 0.111165
C    0.115998 -0.080898 0.099716
C    -0.930237 0.838495 0.212060
N    -0.458615 -1.344416 -0.034556
C    -1.899035 -1.277715 -0.020026
C    -1.211637 2.255853 0.318712
O    -0.504065 3.256851 0.428390
O    -2.613627 -2.262517 -0.113744
C    -3.352055 3.575312 0.432978
C    0.191427 -2.636286 -0.155115
H    -0.613750 -3.372277 -0.209255
H    0.819259 -2.854824 0.714727
H    0.795592 -2.701648 -1.065880
H    -4.116428 3.499036 1.211884
H    -3.830748 3.883575 -0.502792
H    -2.608530 4.323784 0.712895
N    -2.642452 2.317491 0.286047
C    -2.168886 0.140233 0.132381
C    -3.206375 1.048788 0.188556
C    4.052054 0.274062 0.059877
C    3.463720 1.518335 0.234729
S    2.816776 -0.963649 -0.073545
H    1.427737 2.364331 0.388896
H    4.050735 2.421013 0.338665
C    2.058430 1.488913 0.263688
C    1.520846 0.215110 0.110297
C    8.330034 -0.769141 -0.171588
C    7.882765 0.578299 0.001738
C    7.298020 -1.702085 -0.254608
N    6.406358 2.259415 0.234436
N    7.672472 2.653083 0.241467
N    8.602180 1.717613 0.113822
C    8.026912 4.046426 0.458502
H    7.543511 -2.752217 -0.383807
H    5.216422 -2.179477 -0.256179
H    7.232028 4.668215 0.046771
H    8.133440 4.244224 1.529506
H    8.972349 4.240503 -0.047948
C    5.931647 -1.365433 -0.179757
C    6.498693 0.920515 0.077868
C    5.463174 -0.062670 -0.014398
C    11.917861 -2.356104 -0.459513
C    12.081814 -1.007825 -0.293391
S    10.244065 -2.800826 -0.475137
H    10.766084 0.760680 -0.038497
H    13.052225 -0.524764 -0.255949
C    10.848613 -0.309415 -0.175356
C    9.738562 -1.127872 -0.251502
H    12.677889 -3.117359 -0.574168
