71
DPPBTZ-torsion-1-28
C    -8.584151 -0.038169 0.736444
C    -9.459878 -0.251452 -0.364216
C    -9.170868 0.460296 1.888190
N    -11.432852 -0.287005 -1.452387
N    -10.400960 -0.702256 -2.178067
N    -9.200224 -0.708205 -1.610602
C    -10.568217 -1.071633 -3.574751
H    -8.542069 0.651126 2.753088
H    -10.955987 1.102732 2.926355
H    -11.570969 -1.479603 -3.701217
H    -9.810262 -1.814226 -3.823610
H    -10.444725 -0.190664 -4.212019
C    -10.567783 0.721713 1.986125
C    -10.857625 0.012386 -0.264103
C    -11.427210 0.505673 0.930811
H    -12.491341 0.705322 1.002048
C    -4.623409 -0.032679 0.487598
C    -5.048586 -1.348367 0.619506
S    -6.017390 1.045664 0.470469
H    -6.960901 -2.433122 0.813864
H    -4.347292 -2.176424 0.657031
C    -6.452830 -1.481537 0.703506
C    -7.130756 -0.286196 0.631309
C    0.176407 -0.472751 0.285978
C    -0.952222 0.351622 0.265916
N    -0.286641 -1.780613 0.430012
C    -1.718319 -1.830032 0.506031
C    -1.354835 1.735020 0.159408
O    -0.737482 2.790405 0.030849
O    -2.338179 -2.883919 0.634548
C    -3.551733 2.915794 0.157392
C    0.474764 -3.014328 0.505474
H    -0.259482 -3.814866 0.615619
H    1.144782 -3.021222 1.371162
H    1.056319 -3.184517 -0.406228
H    -4.131205 3.089817 1.069851
H    -4.224499 2.916605 -0.706186
H    -2.819674 3.717485 0.041400
N    -2.787758 1.684084 0.236995
C    -2.120009 -0.446265 0.397781
C    -3.247937 0.376994 0.379761
C    4.064604 0.194767 0.030740
C    3.370087 1.393111 -0.046811
S    2.941021 -1.140780 0.210998
H    1.270969 2.080543 -0.006452
H    3.875732 2.342663 -0.160806
C    1.973585 1.253952 0.035628
C    1.547586 -0.062733 0.179735
C    8.413716 -0.516035 -0.120511
C    7.852115 0.795541 -0.221015
C    7.466628 -1.527159 0.030647
N    6.236902 2.359273 -0.299255
N    7.463259 2.848980 -0.418635
N    8.469913 1.988084 -0.376867
C    7.696751 4.280892 -0.512801
H    7.801702 -2.556693 0.117910
H    5.435411 -2.164832 0.200383
H    6.844851 4.732375 -1.021194
H    7.800015 4.711239 0.488059
H    8.614523 4.440073 -1.078827
C    6.077198 -1.296837 0.079006
C    6.444533 1.030223 -0.172117
C    5.497954 -0.032143 -0.018995
C    12.123071 -1.825067 -0.187553
C    12.169755 -0.463809 -0.317586
S    10.494789 -2.399790 -0.050658
H    10.707133 1.203015 -0.399352
H    13.094159 0.094824 -0.417121
C    10.881644 0.139102 -0.308358
C    9.847051 -0.765546 -0.170574
H    12.945419 -2.527540 -0.163789
