71
DPPBTZ-torsion-4-32
C    -8.550759 0.497931 0.096057
C    -9.531091 -0.524274 -0.116647
C    -9.074303 1.766339 0.338540
N    -11.608087 -1.384437 -0.303349
N    -10.638115 -2.274141 -0.461203
N    -9.384325 -1.844303 -0.369898
C    -10.931584 -3.659087 -0.793032
H    -8.392595 2.595263 0.507065
H    -10.778550 3.064948 0.575496
H    -11.935261 -3.884749 -0.434083
H    -10.192298 -4.295726 -0.306048
H    -10.883208 -3.802945 -1.876718
C    -10.464956 2.043789 0.378750
C    -10.928123 -0.236950 -0.074837
C    -11.414007 1.064329 0.177545
H    -12.478575 1.269692 0.207652
C    -4.593428 0.378966 0.121470
C    -5.073357 -0.899088 -0.144036
S    -5.943069 1.492112 0.330803
H    -7.023377 -1.896029 -0.370516
H    -4.404732 -1.738827 -0.306507
C    -6.477455 -0.981868 -0.178309
C    -7.121095 0.222276 0.058020
C    0.188060 -0.234340 0.051368
C    -0.908008 0.617975 0.213861
N    -0.327515 -1.502192 -0.213349
C    -1.762381 -1.497524 -0.228245
C    -1.253610 1.993328 0.491732
O    -0.590711 3.005743 0.709003
O    -2.424548 -2.510887 -0.442056
C    -3.399572 3.240012 0.721510
C    0.384904 -2.743268 -0.457172
H    -0.381580 -3.504324 -0.616469
H    1.000293 -3.029092 0.401964
H    1.014758 -2.677357 -1.350127
H    -4.032425 3.170699 1.612050
H    -4.011753 3.530346 -0.138309
H    -2.632299 3.999049 0.886564
N    -2.688117 1.998853 0.474803
C    -2.108378 -0.121905 0.049033
C    -3.204359 0.730840 0.209939
C    4.101020 0.280349 0.169885
C    3.461684 1.480468 0.426612
S    2.928938 -0.989932 -0.095963
H    1.387189 2.231251 0.584851
H    4.007791 2.395250 0.621253
C    2.057143 1.395747 0.406070
C    1.577701 0.116542 0.139330
C    8.405229 -0.653664 0.178795
C    7.896766 0.599501 -0.288707
C    7.425339 -1.532976 0.634770
N    6.332888 2.145328 -0.777954
N    7.571901 2.526396 -1.056667
N    8.550093 1.667040 -0.801118
C    7.841679 3.806815 -1.690626
H    7.723936 -2.507509 1.010350
H    5.365376 -1.984725 1.035919
H    7.035945 4.490769 -1.425407
H    8.800537 4.176478 -1.326298
H    7.882166 3.685959 -2.777447
C    6.045421 -1.232509 0.646866
C    6.502953 0.902554 -0.276032
C    5.526978 -0.016773 0.211997
C    12.059084 -2.093543 0.427166
C    12.150905 -0.841667 -0.116986
S    10.417087 -2.521614 0.775386
H    10.747897 0.786179 -0.671683
H    13.090716 -0.384346 -0.406996
C    10.886798 -0.205501 -0.261672
C    9.826213 -0.975070 0.173571
H    12.855288 -2.792486 0.645892
