71
DPPBTZ-torsion-1-23
C    -8.600628 -0.795956 0.436815
C    -9.333089 0.198958 -0.274400
C    -9.369073 -1.726082 1.125921
N    -11.172477 1.264581 -1.022163
N    -10.029063 1.789629 -1.445530
N    -8.897595 1.220575 -1.045383
C    -10.012321 2.990217 -2.265821
H    -8.860554 -2.501129 1.691718
H    -11.317362 -2.456732 1.705552
H    -10.930975 3.013377 -2.851679
H    -9.137380 2.948727 -2.914618
H    -9.957420 3.878460 -1.628953
C    -10.790833 -1.696406 1.135761
C    -10.758859 0.226154 -0.258985
C    -11.507604 -0.735595 0.455138
H    -12.592105 -0.708725 0.461196
C    -4.648590 -0.532699 0.310195
C    -5.015961 -1.856836 0.096305
S    -6.084315 0.460187 0.542984
H    -6.879115 -3.024022 -0.049236
H    -4.280707 -2.635051 -0.083887
C    -6.409547 -2.062165 0.125261
C    -7.141432 -0.917124 0.376724
C    0.166025 -0.718159 0.082890
C    -0.996893 0.039287 0.251828
N    -0.241947 -2.037319 -0.114332
C    -1.670512 -2.160616 -0.078018
C    -1.457161 1.388265 0.489513
O    -0.883491 2.465260 0.639681
O    -2.245874 -3.236270 -0.231763
C    -3.701067 2.444667 0.749181
C    0.570716 -3.218994 -0.339639
H    -0.129462 -4.049741 -0.447785
H    1.234638 -3.418019 0.507689
H    1.165018 -3.129961 -1.254643
H    -4.291537 2.360161 1.667135
H    -4.369586 2.635754 -0.096308
H    -3.002515 3.277775 0.849211
N    -2.886509 1.263364 0.528293
C    -2.130118 -0.811319 0.159775
C    -3.292501 -0.054901 0.330805
C    4.023763 0.145009 0.070474
C    3.279407 1.295987 0.284502
S    2.956761 -1.236081 -0.110397
H    1.152791 1.867793 0.460208
H    3.745074 2.262785 0.421559
C    1.889654 1.085680 0.305171
C    1.518925 -0.240723 0.106332
C    8.400051 -0.333099 -0.178227
C    7.783829 0.938901 0.040913
C    7.495827 -1.386621 -0.299579
N    6.104103 2.407713 0.326187
N    7.309293 2.959799 0.353346
N    8.351365 2.156130 0.197045
C    7.482302 4.378122 0.622013
H    7.873866 -2.391381 -0.465020
H    5.492574 -2.126361 -0.328319
H    6.615304 4.907911 0.227456
H    7.560647 4.549410 1.700024
H    8.396145 4.709422 0.128897
C    6.097597 -1.230754 -0.219330
C    6.367238 1.098161 0.122480
C    5.465680 -0.005413 -0.009655
C    12.161970 -1.436634 -0.505520
C    12.151821 -0.085710 -0.288650
S    10.558569 -2.090657 -0.546754
H    10.620418 1.489407 0.024515
H    13.052411 0.515758 -0.228005
C    10.839255 0.444526 -0.151497
C    9.842982 -0.505514 -0.263916
H    13.013192 -2.089692 -0.644170
