71
DPPBTZ-torsion-4-28
C    -8.541463 0.446701 0.112366
C    -9.497519 -0.587436 -0.147699
C    -9.094335 1.694781 0.392023
N    -11.553647 -1.483221 -0.389806
N    -10.563370 -2.346735 -0.566128
N    -9.320066 -1.894592 -0.444467
C    -10.823755 -3.725070 -0.949098
H    -8.432242 2.531198 0.597645
H    -10.828176 2.949008 0.652478
H    -11.826693 -3.983598 -0.610842
H    -10.077158 -4.362902 -0.474995
H    -10.759451 -3.830272 -2.036394
C    -10.490928 1.941989 0.424450
C    -10.900690 -0.330595 -0.113423
C    -11.416754 0.950839 0.177664
H    -12.485683 1.133065 0.201584
C    -4.583079 0.408819 0.182538
C    -5.032528 -0.868681 -0.132892
S    -5.958152 1.485691 0.413607
H    -6.958411 -1.897496 -0.417752
H    -4.344473 -1.688250 -0.315915
C    -6.434270 -0.979433 -0.187318
C    -7.105833 0.202036 0.082571
C    0.209966 -0.102361 0.157691
C    -0.904433 0.721033 0.331638
N    -0.273521 -1.370617 -0.155932
C    -1.708807 -1.395662 -0.191939
C    -1.282158 2.078650 0.650342
O    -0.643572 3.096972 0.908598
O    -2.345344 -2.415185 -0.449718
C    -3.456873 3.272364 0.892309
C    0.469448 -2.586235 -0.434436
H    -0.277566 -3.356296 -0.637012
H    1.075756 -2.892940 0.423994
H    1.113566 -2.471782 -1.312152
H    -4.099376 3.161067 1.771614
H    -4.064085 3.578048 0.034270
H    -2.707838 4.041236 1.092074
N    -2.716380 2.054889 0.615100
C    -2.087605 -0.037955 0.125607
C    -3.202357 0.785993 0.300799
C    4.108877 0.481310 0.366769
C    3.449747 1.658122 0.640977
S    2.971159 -0.802375 0.050601
H    1.354054 2.370985 0.772012
H    3.974410 2.577722 0.875242
C    2.041958 1.551457 0.587426
C    1.594068 0.273709 0.277231
C    8.431401 -0.412318 0.409703
C    7.810335 0.279779 -0.677613
C    7.561618 -0.770595 1.435617
N    6.117525 1.224400 -1.829909
N    7.292802 1.298774 -2.438405
N    8.340585 0.761277 -1.825250
C    7.417653 1.884245 -3.763621
H    7.951775 -1.302654 2.298514
H    5.574793 -0.802432 2.270973
H    6.600749 2.593003 -3.895717
H    8.383091 2.386746 -3.829989
H    7.356987 1.101646 -4.526007
C    6.175050 -0.480260 1.425049
C    6.413914 0.572161 -0.683441
C    5.558743 0.204962 0.390790
C    12.159198 -1.504743 1.048541
C    12.121213 -0.878239 -0.166871
S    10.594664 -1.559742 1.789885
H    10.579517 0.087024 -1.439417
H    12.994890 -0.738743 -0.794322
C    10.817370 -0.430360 -0.519259
C    9.858178 -0.716659 0.430685
H    13.010576 -1.938162 1.556117
