71
DPPBTZ-torsion-4-0
C    -8.555731 0.529445 0.000043
C    -9.545404 -0.505685 0.000114
C    -9.067739 1.825543 0.000062
N    -11.630313 -1.366741 0.000236
N    -10.667969 -2.279128 0.000190
N    -9.410861 -1.851181 0.000106
C    -10.972488 -3.701220 0.000337
H    -8.378312 2.665157 0.000008
H    -10.760002 3.160962 0.000149
H    -12.056593 -3.803028 -0.000144
H    -10.545067 -4.165614 0.892283
H    -10.544220 -4.165937 -0.891026
C    -10.455776 2.118256 0.000142
C    -10.939700 -0.202912 0.000194
C    -11.413740 1.126838 0.000207
H    -12.476466 1.343670 0.000266
C    -4.599247 0.382090 -0.000163
C    -5.091136 -0.918934 -0.000183
S    -5.938846 1.526843 -0.000082
H    -7.050364 -1.923353 -0.000112
H    -4.430240 -1.780241 -0.000227
C    -6.496000 -0.994172 -0.000115
C    -7.128610 0.238753 -0.000041
C    0.177052 -0.277310 -0.000120
C    -0.911744 0.600793 -0.000206
N    -0.351407 -1.567767 -0.000076
C    -1.785727 -1.552386 -0.000066
C    -1.244551 2.007223 -0.000231
O    -0.572258 3.036587 -0.000248
O    -2.458266 -2.581358 -0.000070
C    -3.378938 3.294297 -0.000260
C    0.348498 -2.839640 -0.000053
H    -0.425777 -3.609425 -0.000013
H    0.969974 -2.956617 0.893499
H    0.969940 -2.956674 -0.893622
H    -4.000418 3.411362 0.893285
H    -4.000488 3.411235 -0.893772
H    -2.604585 4.064012 -0.000339
N    -2.679082 2.022456 -0.000202
C    -2.118590 -0.145664 -0.000178
C    -3.207175 0.732036 -0.000191
C    4.098783 0.216762 -0.000069
C    3.463783 1.450344 -0.000166
S    2.908334 -1.072251 -0.000011
H    1.398762 2.234838 -0.000264
H    4.016947 2.380024 -0.000213
C    2.060323 1.373990 -0.000193
C    1.568232 0.072149 -0.000116
C    8.412890 -0.693391 0.000016
C    7.917582 0.648294 0.000091
C    7.414155 -1.665502 -0.000074
N    6.381539 2.291485 0.000105
N    7.634298 2.727996 0.000166
N    8.596334 1.817795 0.000174
C    7.942074 4.149285 0.000618
H    7.697284 -2.714161 -0.000132
H    5.350099 -2.213839 -0.000186
H    6.996440 4.689109 -0.001216
H    8.520898 4.397101 0.893650
H    8.524268 4.396792 -0.890283
C    6.036064 -1.371546 -0.000101
C    6.521577 0.947573 0.000065
C    5.520878 -0.075618 -0.000042
C    12.057610 -2.174206 0.000103
C    12.172519 -0.810794 0.000133
S    10.400063 -2.677180 -0.000069
H    10.792966 0.927420 0.000143
H    13.125167 -0.292181 0.000201
C    10.914279 -0.147733 0.000101
C    9.834066 -1.008518 0.000039
H    12.844963 -2.916071 0.000131
