71
DPPBTZ-torsion-5-19
C    -8.566526 0.588170 0.002936
C    -9.572538 -0.431217 0.001274
C    -9.057974 1.892144 0.005357
N    -11.670794 -1.259431 -0.007602
N    -10.723385 -2.186653 -0.014107
N    -9.459098 -1.778513 -0.005144
C    -11.052726 -3.601938 0.038658
H    -8.355501 2.720850 0.009483
H    -10.729042 3.253919 0.005027
H    -12.055114 -3.728643 -0.369139
H    -11.025318 -3.954564 1.074184
H    -10.319787 -4.150115 -0.554059
C    -10.441303 2.206531 0.003238
C    -10.962035 -0.106657 -0.000572
C    -11.414906 1.230506 -0.001044
H    -12.474048 1.464168 -0.003332
C    -4.612870 0.378952 0.001154
C    -5.124986 -0.914224 0.010526
S    -5.934386 1.544405 -0.006438
H    -7.099657 -1.887843 0.018380
H    -4.477543 -1.785662 0.016287
C    -6.530840 -0.967472 0.011781
C    -7.144151 0.275145 0.003698
C    0.152779 -0.354285 0.001802
C    -0.922371 0.540475 -0.003107
N    -0.395659 -1.636447 0.011043
C    -1.829501 -1.598886 0.012211
C    -1.233382 1.951833 -0.012340
O    -0.545192 2.970606 -0.019638
O    -2.517869 -2.617361 0.019845
C    -3.347533 3.271822 -0.019154
C    0.284411 -2.918978 0.019249
H    -0.501766 -3.676584 0.025756
H    0.905260 -3.039167 0.912813
H    0.902752 -3.051992 -0.874245
H    -3.966380 3.404198 0.874075
H    -3.967908 3.392657 -0.912956
H    -2.561285 4.029359 -0.024745
N    -2.667490 1.989254 -0.011440
C    -2.140627 -0.187235 0.002968
C    -3.215493 0.707206 -0.002201
C    4.081493 0.078886 -0.006342
C    3.465851 1.322278 -0.013178
S    2.871511 -1.191566 0.002568
H    1.413161 2.138510 -0.014756
H    4.033813 2.243096 -0.019757
C    2.061419 1.267602 -0.010582
C    1.549123 -0.026468 -0.001988
C    8.382097 -0.892741 -0.012649
C    7.902274 0.450421 -0.023120
C    7.370649 -1.853008 0.013840
N    6.399379 2.122007 -0.037786
N    7.660832 2.533391 -0.053834
N    8.604515 1.604111 -0.042708
C    7.992840 3.948376 -0.009798
H    7.640231 -2.903277 0.048708
H    5.299050 -2.368833 0.033456
H    7.231364 4.497043 -0.564445
H    8.015309 4.295811 1.027597
H    8.974399 4.078944 -0.464687
C    5.997629 -1.537068 0.011861
C    6.512914 0.775329 -0.019851
C    5.499051 -0.233479 -0.006693
C    12.298040 -1.301390 0.076475
C    11.756914 -2.539345 -0.150233
S    11.082922 -0.077656 0.210106
H    9.738700 -3.393153 -0.399032
H    12.347167 -3.440620 -0.275324
C    10.339661 -2.510531 -0.211528
C    9.795056 -1.251879 -0.029553
H    13.343153 -1.034278 0.161767
