71
DPPBTZ-torsion-1-29
C    -8.569591 0.140262 0.671791
C    -9.500485 -0.339909 -0.292371
C    -9.096806 0.947310 1.668623
N    -11.523917 -0.624520 -1.242108
N    -10.531611 -1.238661 -1.876235
N    -9.304962 -1.117009 -1.381868
C    -10.768845 -1.961576 -3.115636
H    -8.426243 1.352124 2.421125
H    -10.823750 1.880017 2.574352
H    -11.779090 -2.369457 -3.083773
H    -10.028582 -2.757808 -3.192498
H    -10.671022 -1.283478 -3.968914
C    -10.484871 1.252251 1.755204
C    -10.889777 -0.031520 -0.203602
C    -11.397172 0.776478 0.838231
H    -12.455006 1.009393 0.900898
C    -4.614196 0.087568 0.428025
C    -5.054121 -1.214494 0.634281
S    -5.997203 1.175421 0.330738
H    -6.977159 -2.267282 0.879211
H    -4.361106 -2.044826 0.730116
C    -6.458983 -1.329691 0.712080
C    -7.126236 -0.134796 0.554997
C    0.181431 -0.412243 0.280664
C    -0.938565 0.421030 0.206834
N    -0.296034 -1.704980 0.496143
C    -1.728470 -1.735409 0.566669
C    -1.326001 1.800119 0.018696
O    -0.696724 2.840069 -0.165734
O    -2.359971 -2.773698 0.752537
C    -3.510001 3.001324 -0.063863
C    0.452102 -2.939855 0.647564
H    -0.290962 -3.725225 0.799719
H    1.117450 -2.903119 1.516086
H    1.036626 -3.168570 -0.249311
H    -4.094041 3.231559 0.833127
H    -4.176538 2.961282 -0.931338
H    -2.768744 3.787910 -0.218475
N    -2.759651 1.768304 0.089744
C    -2.115190 -0.356088 0.376727
C    -3.234581 0.476157 0.304247
C    4.077573 0.200379 0.011093
C    3.396058 1.399555 -0.137176
S    2.939183 -1.111532 0.259126
H    1.304090 2.109422 -0.147816
H    3.912263 2.336048 -0.300959
C    1.997806 1.279425 -0.055308
C    1.557264 -0.022791 0.159658
C    8.419770 -0.561485 -0.075435
C    7.872513 0.748628 -0.248195
C    7.461304 -1.553604 0.122734
N    6.274236 2.322392 -0.418535
N    7.506326 2.792679 -0.555738
N    8.503641 1.924996 -0.462526
C    7.755358 4.215212 -0.723556
H    7.785085 -2.580455 0.266156
H    5.422626 -2.160916 0.312733
H    6.910322 4.648217 -1.258755
H    7.859149 4.696260 0.253894
H    8.677036 4.335096 -1.292922
C    6.074116 -1.306995 0.150183
C    6.467205 0.999816 -0.220543
C    5.508704 -0.043378 -0.017739
C    12.115376 -1.910211 -0.051785
C    12.177281 -0.557808 -0.250004
S    10.480301 -2.460547 0.102999
H    10.732930 1.117687 -0.425550
H    13.108146 -0.014444 -0.371422
C    10.895594 0.057995 -0.279811
C    9.850654 -0.827871 -0.103423
H    12.930091 -2.618982 0.012823
