71
DPPBTZ-torsion-3-13
C    -8.197361 -1.195177 -0.279118
C    -9.387496 -0.435689 -0.039152
C    -8.416337 -2.510497 -0.683246
N    -11.609430 -0.064479 0.078514
N    -10.867903 0.987945 0.394205
N    -9.547331 0.848321 0.353216
C    -11.474846 2.232464 0.838352
H    -7.561579 -3.150832 -0.882231
H    -9.779502 -4.107586 -1.171514
H    -12.485030 2.276605 0.432537
H    -10.871319 3.062618 0.470093
H    -11.511637 2.261836 1.931581
C    -9.708212 -3.071749 -0.852586
C    -10.683314 -1.007607 -0.211545
C    -10.858024 -2.345776 -0.625954
H    -11.848582 -2.768563 -0.754193
C    -4.367834 -0.234541 0.001072
C    -5.128618 0.874417 0.354335
S    -5.426687 -1.578439 -0.417470
H    -7.259337 1.401571 0.531602
H    -4.669051 1.814880 0.643784
C    -6.516649 0.652381 0.291333
C    -6.866466 -0.627191 -0.109538
C    0.132903 1.424635 0.306660
C    -0.724317 0.355484 0.098538
N    -0.659312 2.535704 0.594233
C    -2.051532 2.203546 0.593619
C    -0.734409 -1.044196 -0.281309
O    0.146208 -1.862307 -0.502501
O    -2.928813 3.025328 0.855137
C    -2.541256 -2.720103 -0.675703
C    -0.213776 3.859914 0.988559
H    -1.034253 4.323496 1.539651
H    0.016758 4.489733 0.121266
H    0.673749 3.788694 1.622181
H    -3.125901 -2.753116 -1.600805
H    -3.116716 -3.178339 0.135089
H    -1.615675 -3.281602 -0.819926
N    -2.137489 -1.365813 -0.345455
C    -2.068072 0.794113 0.260145
C    -2.932053 -0.266717 -0.023400
C    4.018877 0.974099 -0.070756
C    3.666474 2.181366 -0.653878
S    2.607050 0.198548 0.618971
H    1.838066 3.363472 -0.979952
H    4.388788 2.816166 -1.149566
C    2.292109 2.479694 -0.546842
C    1.565228 1.518049 0.135856
C    7.993198 -0.919203 0.197956
C    7.815884 0.410361 -0.298748
C    6.807901 -1.544188 0.578544
N    6.696540 2.268871 -0.896060
N    8.006564 2.346550 -1.087683
N    8.735360 1.291116 -0.753694
C    8.626693 3.569275 -1.570579
H    6.844927 -2.558700 0.964799
H    4.682071 -1.527524 0.801176
H    7.924834 4.067422 -2.239531
H    8.865471 4.227664 -0.729597
H    9.541162 3.301151 -2.099563
C    5.538321 -0.937026 0.487802
C    6.531036 1.026835 -0.389109
C    5.333352 0.356274 0.012217
C    11.189588 -3.158998 0.696184
C    11.608436 -1.960760 0.185655
S    9.470894 -3.198867 0.908290
H    10.664468 -0.053145 -0.442525
H    12.647988 -1.731109 -0.022099
C    10.539260 -1.050853 -0.043092
C    9.299205 -1.556575 0.294038
H    11.784653 -4.022685 0.961207
