71
DPPBTZ-torsion-5-25
C    -8.564460 0.577462 0.009150
C    -9.567785 -0.444492 0.015789
C    -9.059098 1.880194 0.006116
N    -11.663935 -1.277975 0.017433
N    -10.714267 -2.202827 0.013119
N    -9.450970 -1.791508 0.016209
C    -11.039906 -3.618673 0.074229
H    -8.358704 2.710670 0.003833
H    -10.733606 3.237767 0.003464
H    -12.043773 -3.749723 -0.328501
H    -11.007035 -3.966091 1.111343
H    -10.308276 -4.168007 -0.519039
C    -10.443205 2.191129 0.006355
C    -10.958067 -0.123406 0.016267
C    -11.414284 1.212584 0.010045
H    -12.474019 1.443552 0.009615
C    -4.610454 0.377869 -0.002452
C    -5.119318 -0.916500 0.014750
S    -5.934752 1.540090 -0.012282
H    -7.091625 -1.894820 0.032916
H    -4.469765 -1.786362 0.023153
C    -6.525007 -0.973166 0.020115
C    -7.141239 0.267991 0.007509
C    0.156251 -0.344702 -0.009067
C    -0.920376 0.547406 -0.016098
N    -0.388739 -1.627970 0.007678
C    -1.822934 -1.593756 0.011863
C    -1.234739 1.958242 -0.031851
O    -0.548890 2.978254 -0.045920
O    -2.508813 -2.613794 0.026080
C    -3.352031 3.273389 -0.040908
C    0.294250 -2.908986 0.021665
H    -0.490243 -3.668250 0.034089
H    0.917190 -3.022771 0.914591
H    0.910926 -3.045696 -0.872410
H    -3.968949 3.409130 0.853132
H    -3.974830 3.387806 -0.933848
H    -2.567663 4.032787 -0.052540
N    -2.668929 1.992417 -0.027889
C    -2.137137 -0.182982 -0.003693
C    -3.213831 0.709199 -0.010936
C    4.083611 0.096628 -0.027668
C    3.467126 1.338161 -0.038004
S    2.876785 -1.175652 -0.010450
H    1.412145 2.151140 -0.039011
H    4.033814 2.259759 -0.049636
C    2.061785 1.281341 -0.032408
C    1.552833 -0.013272 -0.017349
C    8.374591 -0.857199 -0.021439
C    7.902900 0.484489 -0.044798
C    7.382055 -1.826182 -0.015699
N    6.393651 2.149864 -0.077212
N    7.655770 2.562693 -0.100067
N    8.605291 1.639122 -0.079452
C    7.981892 3.979744 -0.079643
H    7.676468 -2.871325 -0.002789
H    5.303737 -2.348207 -0.003837
H    7.248312 4.512764 -0.685290
H    7.952911 4.355334 0.947672
H    8.984418 4.098465 -0.489310
C    6.001468 -1.515631 -0.016972
C    6.512231 0.803791 -0.043256
C    5.505011 -0.213573 -0.028905
C    12.268019 -1.435584 0.260323
C    11.861714 -1.948402 -0.940624
S    10.941197 -0.767500 1.152632
H    9.944058 -2.130986 -2.051400
H    12.537014 -2.406278 -1.655420
C    10.458118 -1.807907 -1.152426
C    9.802688 -1.205158 -0.106021
H    13.266281 -1.414333 0.677047
