71
DPPBTZ-torsion-5-17
C    -8.566517 0.588092 0.001528
C    -9.572522 -0.431216 -0.011900
C    -9.057971 1.891973 0.017049
N    -11.670761 -1.259273 -0.031594
N    -10.723344 -2.186387 -0.046802
N    -9.459070 -1.778373 -0.032262
C    -11.052728 -3.602145 -0.009164
H    -8.355506 2.720588 0.030430
H    -10.729040 3.253692 0.029178
H    -12.054883 -3.724513 -0.418852
H    -11.025911 -3.965655 1.022606
H    -10.319461 -4.144076 -0.607198
C    -10.441298 2.206377 0.016773
C    -10.962016 -0.106640 -0.011798
C    -11.414893 1.230458 0.001250
H    -12.474032 1.464138 0.000286
C    -4.612870 0.378903 0.003072
C    -5.124971 -0.914291 -0.004229
S    -5.934387 1.544365 0.007956
H    -7.099633 -1.887933 -0.011158
H    -4.477519 -1.785734 -0.008211
C    -6.530823 -0.967550 -0.005657
C    -7.144142 0.275073 0.000608
C    0.152787 -0.354299 0.003626
C    -0.922378 0.540452 0.007191
N    -0.395661 -1.636482 -0.003709
C    -1.829486 -1.598932 -0.004939
C    -1.233384 1.951822 0.014384
O    -0.545212 2.970612 0.020342
O    -2.517861 -2.617418 -0.010977
C    -3.347558 3.271806 0.019260
C    0.284411 -2.919023 -0.010149
H    -0.501770 -3.676634 -0.015388
H    0.902914 -3.050707 0.883427
H    0.905093 -3.040540 -0.903652
H    -3.968025 3.393808 0.912841
H    -3.966318 3.403015 -0.874202
H    -2.561316 4.029355 0.023919
N    -2.667508 1.989235 0.013307
C    -2.140630 -0.187271 0.002168
C    -3.215494 0.707179 0.005975
C    4.081507 0.078886 0.011277
C    3.465862 1.322286 0.016376
S    2.871530 -1.191575 0.003361
H    1.413173 2.138510 0.017300
H    4.033826 2.243110 0.021650
C    2.061431 1.267600 0.013942
C    1.549129 -0.026480 0.006988
C    8.382200 -0.892616 0.015865
C    7.902307 0.450585 0.015829
C    7.370668 -1.853112 0.006848
N    6.399410 2.122207 0.006656
N    7.660912 2.533730 -0.000297
N    8.604547 1.604398 0.010651
C    7.992491 3.948420 0.055366
H    7.640054 -2.903788 -0.014532
H    5.299052 -2.369168 0.003943
H    7.233207 4.500916 -0.498484
H    8.010638 4.288319 1.095328
H    8.975929 4.082538 -0.394404
C    5.997652 -1.537165 0.010268
C    6.512923 0.775439 0.013496
C    5.499067 -0.233456 0.012562
C    12.297749 -1.301848 -0.088701
C    11.757961 -2.537405 0.153680
S    11.081807 -0.079708 -0.229188
H    9.741221 -3.388797 0.421509
H    12.348938 -3.437288 0.285196
C    10.341030 -2.508061 0.221855
C    9.795289 -1.251479 0.029318
H    13.342372 -1.035582 -0.182268
