71
DPPBTZ-torsion-2-36
C    -8.555358 0.529379 -0.003630
C    -9.545340 -0.505549 0.003919
C    -9.067055 1.825504 -0.012917
N    -11.630418 -1.366298 0.018050
N    -10.668676 -2.278593 0.029220
N    -9.410908 -1.850859 0.017579
C    -10.975932 -3.699114 -0.015804
H    -8.377564 2.665006 -0.021758
H    -10.759144 3.161060 -0.019324
H    -11.975858 -3.839323 0.393620
H    -10.233979 -4.232634 0.579060
H    -10.943941 -4.056692 -1.049497
C    -10.455112 2.118310 -0.011986
C    -10.939716 -0.202670 0.004525
C    -11.413374 1.127255 -0.002064
H    -12.476032 1.344377 -0.000635
C    -4.598930 0.381661 -0.002305
C    -5.090904 -0.919348 -0.004063
S    -5.938380 1.526501 -0.000881
H    -7.050187 -1.923552 -0.005542
H    -4.430028 -1.780667 -0.005106
C    -6.495750 -0.994422 -0.004444
C    -7.128287 0.238550 -0.003218
C    0.177377 -0.277838 -0.000915
C    -0.911417 0.600275 -0.000527
N    -0.351108 -1.568317 -0.002536
C    -1.785368 -1.552917 -0.003219
C    -1.244228 2.006703 0.000831
O    -0.571874 3.036035 0.002245
O    -2.457971 -2.581865 -0.004660
C    -3.378559 3.293838 0.001273
C    0.348758 -2.840253 -0.003589
H    -0.425575 -3.609974 -0.004808
H    0.969773 -2.958225 0.890144
H    0.970636 -2.956274 -0.896978
H    -4.000255 3.409973 0.894784
H    -3.999881 3.411667 -0.892275
H    -2.604172 4.063513 0.002175
N    -2.678725 2.021948 0.000196
C    -2.118262 -0.146191 -0.001888
C    -3.206826 0.731523 -0.001428
C    4.099051 0.216230 0.001822
C    3.464087 1.449859 0.002694
S    2.908680 -1.072802 -0.000618
H    1.399026 2.234249 0.002615
H    4.017353 2.379497 0.003934
C    2.060633 1.373435 0.001880
C    1.568552 0.071573 0.000187
C    8.413458 -0.692867 0.002492
C    7.917552 0.648700 -0.002050
C    7.415132 -1.665332 0.009987
N    6.380801 2.291385 -0.013568
N    7.632579 2.728389 -0.024563
N    8.595805 1.818302 -0.013634
C    7.934815 4.149545 0.028284
H    7.698521 -2.713884 0.016710
H    5.351248 -2.214146 0.016864
H    7.133844 4.687433 -0.478830
H    8.000928 4.481014 1.069116
H    8.889081 4.313811 -0.472117
C    6.036961 -1.371654 0.010067
C    6.521373 0.947622 -0.001959
C    5.521177 -0.075972 0.002730
C    12.058279 -2.173238 -0.001844
C    12.173113 -0.809799 0.001549
S    10.400843 -2.676342 -0.003238
H    10.793468 0.928238 0.005747
H    13.125732 -0.291140 0.002880
C    10.914823 -0.146898 0.003204
C    9.834660 -1.007755 0.001233
H    12.845745 -2.914982 -0.003862
