71
DPPBTZ-torsion-5-28
C    -8.557740 0.546805 0.050967
C    -9.553319 -0.482364 0.024306
C    -9.062078 1.844829 0.101486
N    -11.643130 -1.331424 0.007088
N    -10.686655 -2.248062 -0.039148
N    -9.426463 -1.827446 -0.028217
C    -11.001320 -3.667686 -0.030828
H    -8.367928 2.680161 0.126500
H    -10.746656 3.188534 0.162059
H    -12.006852 -3.790802 -0.431896
H    -10.958928 -4.054659 0.991837
H    -10.269579 -4.188014 -0.649557
C    -10.448428 2.144842 0.122648
C    -10.945915 -0.172263 0.046135
C    -11.412116 1.159401 0.094639
H    -12.473526 1.382023 0.109915
C    -4.602519 0.378105 0.008663
C    -5.101691 -0.919668 -0.026648
S    -5.935375 1.529549 0.056419
H    -7.066575 -1.912890 -0.039035
H    -4.445721 -1.784130 -0.059298
C    -6.506858 -0.987237 -0.015636
C    -7.132285 0.248602 0.028337
C    0.169084 -0.307439 -0.057419
C    -0.913974 0.575949 -0.019975
N    -0.366299 -1.594337 -0.092371
C    -1.800666 -1.571206 -0.078231
C    -1.238746 1.983799 0.026740
O    -0.560480 3.008601 0.052077
O    -2.478979 -2.596065 -0.103647
C    -3.365638 3.282024 0.087727
C    0.326126 -2.869566 -0.138354
H    -0.452711 -3.634540 -0.155151
H    0.954895 -3.017815 0.745384
H    0.938694 -2.962150 -1.040856
H    -3.977912 3.374086 0.990474
H    -3.994832 3.430391 -0.795684
H    -2.586962 4.047158 0.104487
N    -2.673099 2.006906 0.041004
C    -2.125273 -0.163482 -0.031551
C    -3.208449 0.720062 0.006114
C    4.092792 0.164033 -0.078223
C    3.467384 1.400191 -0.034218
S    2.895543 -1.116894 -0.108080
H    1.406473 2.197042 0.009640
H    4.027291 2.325705 -0.010240
C    2.062456 1.332639 -0.023519
C    1.563271 0.034702 -0.059540
C    8.388898 -0.755973 -0.158160
C    7.908239 0.581044 -0.115777
C    7.405848 -1.733246 -0.148562
N    6.387534 2.235928 -0.061898
N    7.647118 2.657503 -0.071562
N    8.603391 1.741020 -0.099339
C    7.963343 4.074073 0.018847
H    7.706961 -2.776555 -0.165225
H    5.331237 -2.270928 -0.129462
H    7.217782 4.631763 -0.548719
H    7.945105 4.395277 1.064680
H    8.959619 4.222465 -0.396443
C    6.022756 -1.433138 -0.126320
C    6.515426 0.890527 -0.092504
C    5.516774 -0.134876 -0.100229
C    12.126957 -1.849502 0.484103
C    12.035404 -1.475871 -0.827842
S    10.608858 -1.673562 1.303218
H    10.448514 -0.709830 -2.184183
H    12.870537 -1.511314 -1.519264
C    10.724900 -1.039785 -1.188580
C    9.830930 -1.074230 -0.148807
H    12.994118 -2.211930 1.020056
