71
DPPBTZ-torsion-1-31
C    -8.557169 0.360489 0.494050
C    -9.527277 -0.433860 -0.185892
C    -9.058833 1.462205 1.176060
N    -11.588851 -1.044817 -0.858865
N    -10.616559 -1.838501 -1.292262
N    -9.369604 -1.543415 -0.942166
C    -10.899016 -2.951777 -2.184199
H    -8.366333 2.106015 1.710527
H    -10.758804 2.642076 1.793264
H    -11.897924 -3.324248 -1.957471
H    -10.147576 -3.723073 -2.015634
H    -10.856807 -2.617413 -3.225310
C    -10.446356 1.769961 1.226028
C    -10.917225 -0.121419 -0.132125
C    -11.392769 0.998255 0.586321
H    -12.451545 1.231834 0.622840
C    -4.607103 0.249082 0.303086
C    -5.072579 -1.044252 0.516816
S    -5.969537 1.357990 0.164662
H    -7.014600 -2.063633 0.735455
H    -4.394513 -1.884053 0.634370
C    -6.477611 -1.136939 0.571123
C    -7.125653 0.069148 0.390816
C    0.179793 -0.335055 0.223878
C    -0.924875 0.516974 0.129619
N    -0.322806 -1.617561 0.442466
C    -1.756259 -1.622571 0.494935
C    -1.285568 1.901229 -0.074339
O    -0.635307 2.928423 -0.257591
O    -2.408021 -2.648202 0.680980
C    -3.445814 3.140475 -0.193522
C    0.401749 -2.863908 0.613474
H    -0.356700 -3.635034 0.762479
H    1.056595 -2.831384 1.490098
H    0.993477 -3.110112 -0.273990
H    -4.039323 3.384975 0.693393
H    -4.099422 3.108569 -1.071126
H    -2.688333 3.913006 -0.340185
N    -2.719940 1.895103 -0.022922
C    -2.116577 -0.238101 0.289699
C    -3.220868 0.612926 0.195197
C    4.088823 0.208203 -0.000898
C    3.430088 1.418046 -0.165366
S    2.924840 -1.082150 0.241453
H    1.351159 2.163946 -0.206762
H    3.964542 2.344322 -0.328708
C    2.029172 1.322732 -0.100174
C    1.563341 0.029693 0.117730
C    8.417841 -0.628820 -0.028662
C    7.895511 0.689476 -0.215723
C    7.439948 -1.603137 0.163102
N    6.326954 2.289514 -0.414965
N    7.568599 2.737689 -0.539402
N    8.549516 1.853521 -0.428802
C    7.844292 4.154716 -0.712176
H    7.744145 -2.634540 0.316379
H    5.388892 -2.174133 0.330907
H    7.013568 4.599067 -1.260322
H    7.944290 4.639624 0.263759
H    8.774888 4.255326 -1.270663
C    6.057043 -1.332533 0.171765
C    6.494547 0.964988 -0.207093
C    5.515688 -0.060326 -0.010388
C    12.088913 -2.040868 0.049300
C    12.176702 -0.690958 -0.156046
S    10.442769 -2.561996 0.186762
H    10.763895 1.008093 -0.359509
H    13.118279 -0.164476 -0.268936
C    10.906353 -0.053347 -0.205562
C    9.844103 -0.919991 -0.037142
H    12.890359 -2.763179 0.128280
