71
DPPBTZ-torsion-4-26
C    -8.525023 0.497462 -0.116290
C    -9.484866 -0.547728 0.077087
C    -9.072974 1.747527 -0.396731
N    -11.544102 -1.457863 0.218214
N    -10.557372 -2.316675 0.433192
N    -9.312506 -1.857893 0.363368
C    -10.822554 -3.726973 0.667691
H    -8.407753 2.590972 -0.558967
H    -10.801666 2.997271 -0.708018
H    -11.829902 -3.816075 1.073201
H    -10.083908 -4.105072 1.375131
H    -10.749426 -4.283154 -0.271846
C    -10.468367 1.987844 -0.484887
C    -10.886800 -0.297887 -0.013504
C    -11.397850 0.987214 -0.297182
H    -12.465889 1.164437 -0.362537
C    -4.567643 0.486063 0.002596
C    -5.021658 -0.805034 0.248394
S    -5.938493 1.562753 -0.253121
H    -6.950895 -1.855160 0.403058
H    -4.336738 -1.626790 0.433374
C    -6.423517 -0.926076 0.231773
C    -7.090606 0.260591 -0.026101
C    0.222204 0.005428 0.249981
C    -0.888735 0.826563 0.045951
N    -0.265811 -1.276129 0.494679
C    -1.700701 -1.312333 0.454832
C    -1.261354 2.192364 -0.242470
O    -0.619102 3.223079 -0.433832
O    -2.340900 -2.344859 0.642278
C    -3.431096 3.380040 -0.549976
C    0.472605 -2.497814 0.758952
H    -0.276814 -3.282149 0.882386
H    1.063875 -2.420269 1.677026
H    1.130666 -2.757998 -0.076265
H    -4.081813 3.652016 0.287266
H    -4.029074 3.295263 -1.463004
H    -2.679356 4.160064 -0.686257
N    -2.695334 2.158347 -0.278751
C    -2.074403 0.053056 0.165298
C    -3.185844 0.875820 -0.034614
C    4.119778 0.627184 0.288213
C    3.466737 1.802207 -0.010001
S    2.978088 -0.672692 0.507975
H    1.375583 2.499241 -0.254084
H    3.996860 2.728058 -0.204599
C    2.059325 1.682215 -0.044800
C    1.607528 0.394975 0.215198
C    8.490291 0.035962 0.440770
C    7.705894 -0.403495 -0.672412
C    7.757195 0.637368 1.459406
N    5.829862 -0.724730 -1.881496
N    6.934823 -1.153685 -2.475128
N    8.082359 -1.003874 -1.824742
C    6.883764 -1.826634 -3.763148
H    8.276155 0.999450 2.342296
H    5.864920 1.292832 2.258751
H    5.989176 -1.486883 -4.284144
H    7.782177 -1.567778 -4.324173
H    6.839941 -2.910373 -3.618150
C    6.351336 0.809353 1.416646
C    6.290445 -0.229184 -0.711344
C    5.573957 0.384772 0.351899
C    12.355440 -0.135369 1.168488
C    12.145803 -0.710132 -0.054963
S    10.875416 0.418084 1.878128
H    10.405378 -1.119820 -1.370609
H    12.942180 -1.121016 -0.666046
C    10.775744 -0.711636 -0.439394
C    9.938222 -0.135986 0.494157
H    13.289074 -0.002013 1.698464
