71
DPPBTZ-torsion-2-14
C    -8.120865 -0.968424 -0.204720
C    -9.435765 -0.555139 0.181499
C    -8.047903 -2.243156 -0.760457
N    -11.668316 -0.752229 0.437489
N    -11.176396 0.406262 0.854304
N    -9.866311 0.598616 0.740891
C    -12.027887 1.404187 1.480617
H    -7.079398 -2.633347 -1.060424
H    -9.025039 -4.058558 -1.390744
H    -13.045512 1.249086 1.123410
H    -11.665023 2.393791 1.201050
H    -11.996075 1.295215 2.569083
C    -9.179727 -3.078601 -0.948608
C    -10.568360 -1.401922 -0.008881
C    -10.449759 -2.685614 -0.584931
H    -11.318409 -3.319873 -0.725031
C    -4.644211 0.899493 -0.071152
C    -5.571798 1.655001 0.630815
S    -5.393526 -0.558853 -0.687170
H    -7.714353 1.539451 1.147494
H    -5.319565 2.577152 1.139903
C    -6.863946 1.091239 0.650857
C    -6.951600 -0.115704 -0.023706
C    0.102982 -0.040983 -0.163139
C    -0.942842 0.883001 -0.243529
N    -0.477560 -1.306224 -0.086541
C    -1.914993 -1.233429 -0.116569
C    -1.216462 2.303706 -0.292365
O    -0.504229 3.303736 -0.369913
O    -2.631722 -2.224283 -0.091591
C    -3.315786 3.655965 -0.408992
C    0.167411 -2.605278 -0.032736
H    -0.640034 -3.340589 -0.026105
H    0.763817 -2.722420 0.877879
H    0.802097 -2.776788 -0.908106
H    -3.641979 4.065564 0.554386
H    -4.182741 3.555245 -1.066571
H    -2.590968 4.346454 -0.844515
N    -2.645587 2.377326 -0.256274
C    -2.182883 0.188809 -0.202574
C    -3.223566 1.107840 -0.207076
C    4.039649 0.297606 -0.071909
C    3.457744 1.549011 -0.214834
S    2.797562 -0.938453 0.008768
H    1.427358 2.408388 -0.363779
H    4.049338 2.452004 -0.284727
C    2.052917 1.526739 -0.259954
C    1.508035 0.251027 -0.152329
C    8.310526 -0.771718 0.170199
C    7.871138 0.581394 0.022643
C    7.273080 -1.700276 0.231780
N    6.405118 2.273247 -0.197725
N    7.673657 2.659000 -0.203604
N    8.597364 1.717866 -0.072917
C    8.032739 4.066216 -0.272165
H    7.512275 -2.753589 0.346236
H    5.189034 -2.166563 0.214184
H    7.272658 4.583875 -0.857273
H    8.076891 4.491961 0.734984
H    9.009575 4.145715 -0.749096
C    5.908969 -1.355298 0.154302
C    6.489309 0.932174 -0.056042
C    5.448073 -0.047449 0.007578
C    11.888870 -2.384012 0.437360
C    12.060102 -1.031848 0.316638
S    10.212975 -2.821199 0.423226
H    10.754418 0.750119 0.107377
H    13.032895 -0.552284 0.303713
C    10.831046 -0.324206 0.210317
C    9.716744 -1.139427 0.250143
H    12.644512 -3.152138 0.533686
