71
DPPBTZ-torsion-4-16
C    -8.518864 0.530331 0.053746
C    -9.464715 -0.540222 -0.049207
C    -9.084370 1.796357 0.192373
N    -11.511806 -1.485319 -0.119928
N    -10.512707 -2.351318 -0.216409
N    -9.274083 -1.871691 -0.187099
C    -10.760884 -3.769641 -0.418747
H    -8.430700 2.660285 0.273463
H    -10.830729 3.050889 0.344930
H    -11.749562 -3.997399 -0.021506
H    -9.990874 -4.334225 0.107884
H    -10.725316 -4.007685 -1.486224
C    -10.483391 2.027732 0.233865
C    -10.870469 -0.299076 -0.006881
C    -11.399322 1.001862 0.138176
H    -12.470044 1.171964 0.169843
C    -4.559811 0.552183 0.018928
C    -4.996922 -0.759829 -0.129179
S    -5.945824 1.631158 0.157907
H    -6.912540 -1.839960 -0.235948
H    -4.300603 -1.586400 -0.231805
C    -6.397437 -0.894231 -0.131300
C    -7.080948 0.302365 0.013932
C    0.240225 0.101936 -0.073404
C    -0.884572 0.927016 0.029378
N    -0.233532 -1.201488 -0.218515
C    -1.667096 -1.247674 -0.212418
C    -1.276071 2.308391 0.191969
O    -0.647717 3.359103 0.307823
O    -2.295600 -2.297990 -0.327395
C    -3.462416 3.494852 0.346971
C    0.519899 -2.433373 -0.368766
H    -0.220982 -3.230345 -0.458272
H    1.152289 -2.627079 0.503505
H    1.140686 -2.417108 -1.270233
H    -4.080416 3.482735 1.250470
H    -4.096185 3.686308 -0.524846
H    -2.720983 4.291820 0.431877
N    -2.709867 2.262307 0.198942
C    -2.059201 0.134393 -0.051684
C    -3.183415 0.958819 0.053200
C    4.132214 0.753840 -0.029449
C    3.446042 1.951655 0.121577
S    3.001219 -0.574597 -0.158695
H    1.352402 2.647932 0.219306
H    3.948557 2.902712 0.256060
C    2.048876 1.822232 0.110842
C    1.616691 0.506624 -0.040702
C    8.514510 0.283950 -0.111070
C    7.645040 -0.818722 0.159162
C    7.848765 1.484635 -0.355242
N    5.684165 -1.884364 0.450731
N    6.744971 -2.669439 0.577989
N    7.938655 -2.111543 0.426217
C    6.607571 -4.068729 0.947976
H    8.430474 2.374618 -0.577803
H    6.033693 2.598620 -0.570297
H    5.656253 -4.431108 0.558775
H    7.440400 -4.620733 0.512222
H    6.624845 -4.172427 2.037227
C    6.445566 1.620831 -0.342621
C    6.225338 -0.678225 0.176197
C    5.573749 0.565755 -0.074817
C    12.432354 0.577889 -0.314295
C    12.137213 -0.721504 -0.003468
S    10.999930 1.536339 -0.487197
H    10.304478 -1.925297 0.337890
H    12.892374 -1.485305 0.147608
C    10.739521 -0.963452 0.100382
C    9.964529 0.155878 -0.132161
H    13.404044 1.032755 -0.452874
