71
DPPBTZ-torsion-1-2
C    -8.554848 0.506092 -0.205974
C    -9.539629 -0.493533 0.072847
C    -9.065413 1.769932 -0.491623
N    -11.618257 -1.317718 0.362894
N    -10.651999 -2.207214 0.547398
N    -9.397106 -1.799827 0.390753
C    -10.955283 -3.598614 0.841349
H    -8.375397 2.573760 -0.732149
H    -10.761697 3.077854 -0.741856
H    -11.920130 -3.634045 1.346569
H    -10.166337 -3.994745 1.481056
H    -11.001591 -4.176484 -0.086813
C    -10.454120 2.063409 -0.504862
C    -10.933589 -0.191540 0.055540
C    -11.408839 1.106146 -0.234826
H    -12.471098 1.325290 -0.244143
C    -4.601336 0.362597 -0.121563
C    -5.088949 -0.936222 -0.225276
S    -5.944748 1.500338 -0.045248
H    -7.045448 -1.942326 -0.319200
H    -4.424981 -1.793129 -0.284901
C    -6.493816 -1.013930 -0.248088
C    -7.127748 0.214423 -0.165040
C    0.176784 -0.285595 -0.094998
C    -0.914548 0.587838 -0.046452
N    -0.347536 -1.573533 -0.200279
C    -1.781651 -1.561036 -0.222491
C    -1.251889 1.989535 0.053808
O    -0.583180 3.017514 0.141321
O    -2.450894 -2.588345 -0.311661
C    -3.390580 3.268240 0.117256
C    0.356343 -2.840355 -0.285965
H    -0.415412 -3.609396 -0.356947
H    0.964027 -3.023843 0.605880
H    0.992169 -2.887693 -1.175811
H    -4.025349 3.316859 1.007814
H    -3.999527 3.450219 -0.774084
H    -2.618995 4.037650 0.186145
N    -2.686409 2.001646 0.032410
C    -2.118983 -0.159071 -0.121615
C    -3.210071 0.713821 -0.072737
C    4.096425 0.214785 0.006053
C    3.457644 1.443747 0.087105
S    2.910323 -1.072951 -0.109967
H    1.390360 2.221887 0.111790
H    4.007898 2.371891 0.165200
C    2.054601 1.364768 0.058396
C    1.566746 0.065586 -0.046504
C    8.413241 -0.682924 0.009174
C    7.913153 0.654606 0.090813
C    7.418038 -1.655684 -0.066351
N    6.371476 2.290773 0.170624
N    7.621875 2.730167 0.209184
N    8.587740 1.823621 0.171174
C    7.918822 4.144814 0.365513
H    7.704642 -2.701560 -0.128148
H    5.356038 -2.208101 -0.128898
H    7.121961 4.714981 -0.111908
H    7.971836 4.402328 1.427798
H    8.878266 4.346395 -0.110802
C    6.039075 -1.365695 -0.066806
C    6.516178 0.949777 0.090552
C    5.519313 -0.073777 0.008390
C    12.062497 -2.151389 -0.045074
C    12.172826 -0.791575 0.059279
S    10.406919 -2.656515 -0.109420
H    10.787663 0.938667 0.167800
H    13.123619 -0.272393 0.113471
C    10.912518 -0.133186 0.089116
C    9.835316 -0.993887 0.007458
H    12.852296 -2.889371 -0.088526
