71
DPPBTZ-torsion-1-0
C    -8.555731 0.529444 0.000009
C    -9.545404 -0.505686 0.000108
C    -9.067739 1.825542 0.000005
N    -11.630313 -1.366742 0.000267
N    -10.667969 -2.279129 0.000231
N    -9.410861 -1.851182 0.000126
C    -10.972488 -3.701220 0.000412
H    -8.378312 2.665156 -0.000079
H    -10.760002 3.160961 0.000077
H    -12.056593 -3.803029 -0.000056
H    -10.545058 -4.165596 0.892363
H    -10.544229 -4.165957 -0.890946
C    -10.455776 2.118256 0.000091
C    -10.939700 -0.202912 0.000193
C    -11.413740 1.126837 0.000184
H    -12.476466 1.343669 0.000247
C    -4.599247 0.382091 -0.000165
C    -5.091136 -0.918934 -0.000292
S    -5.938846 1.526843 0.000011
H    -7.050364 -1.923354 -0.000312
H    -4.430240 -1.780241 -0.000403
C    -6.496000 -0.994172 -0.000239
C    -7.128610 0.238753 -0.000072
C    0.177052 -0.277309 -0.000151
C    -0.911744 0.600793 -0.000170
N    -0.351407 -1.567766 -0.000217
C    -1.785727 -1.552385 -0.000213
C    -1.244551 2.007224 -0.000081
O    -0.572258 3.036588 -0.000008
O    -2.458266 -2.581357 -0.000307
C    -3.378939 3.294298 -0.000014
C    0.348499 -2.839639 -0.000295
H    -0.425777 -3.609424 -0.000323
H    0.969970 -2.956689 0.893251
H    0.969945 -2.956600 -0.893870
H    -4.000423 3.411288 0.893538
H    -4.000484 3.411310 -0.893520
H    -2.604585 4.064012 -0.000026
N    -2.679082 2.022457 -0.000059
C    -2.118590 -0.145663 -0.000211
C    -3.207175 0.732036 -0.000158
C    4.098783 0.216763 -0.000033
C    3.463783 1.450344 -0.000036
S    2.908334 -1.072250 -0.000101
H    1.398762 2.234838 -0.000081
H    4.016947 2.380025 -0.000005
C    2.060323 1.373990 -0.000080
C    1.568232 0.072149 -0.000110
C    8.412890 -0.693391 0.000069
C    7.917583 0.648294 0.000049
C    7.414155 -1.665502 0.000068
N    6.381540 2.291485 -0.000041
N    7.634298 2.727996 -0.000037
N    8.596335 1.817795 0.000027
C    7.942075 4.149285 0.000297
H    7.697283 -2.714161 0.000089
H    5.350099 -2.213838 0.000042
H    6.996441 4.689109 -0.001567
H    8.520912 4.397173 0.893301
H    8.524256 4.396721 -0.890632
C    6.036063 -1.371546 0.000040
C    6.521577 0.947573 0.000022
C    5.520878 -0.075617 0.000009
C    12.057610 -2.174208 0.000218
C    12.172519 -0.810796 0.000137
S    10.400062 -2.677181 0.000111
H    10.792967 0.927418 0.000030
H    13.125167 -0.292184 0.000151
C    10.914279 -0.147734 0.000072
C    9.834066 -1.008519 0.000095
H    12.844962 -2.916073 0.000293
