71
DPPBTZ-torsion-2-20
C    -8.077864 -1.027510 0.098681
C    -9.429304 -0.596435 -0.096328
C    -7.933600 -2.379449 0.401988
N    -11.670407 -0.825170 -0.218270
N    -11.238574 0.404674 -0.460321
N    -9.928815 0.622515 -0.402946
C    -12.168141 1.493851 -0.710873
H    -6.936594 -2.782556 0.555731
H    -8.817103 -4.313640 0.755228
H    -13.098647 1.061903 -1.077750
H    -11.730354 2.160639 -1.454632
H    -12.354653 2.048194 0.214024
C    -9.028056 -3.275449 0.515729
C    -10.524246 -1.504216 0.019211
C    -10.331607 -2.868156 0.329185
H    -11.172309 -3.548345 0.413016
C    -4.650626 0.939805 -0.006037
C    -5.669151 1.803097 -0.395303
S    -5.316477 -0.650309 0.342934
H    -7.854724 1.736278 -0.672349
H    -5.500643 2.826841 -0.698998
C    -6.947948 1.214771 -0.395822
C    -6.944678 -0.116665 -0.011373
C    0.096068 0.001018 0.092399
C    -0.948213 0.930381 0.127777
N    -0.490749 -1.262686 0.052485
C    -1.925979 -1.180541 0.065392
C    -1.214736 2.351273 0.146700
O    -0.495442 3.347501 0.202131
O    -2.648316 -2.169947 0.066687
C    -3.286782 3.729013 0.236490
C    0.147329 -2.566355 0.045354
H    -0.663831 -3.297464 0.051275
H    0.770555 -2.714551 0.933076
H    0.753925 -2.713338 -0.854072
H    -4.076814 3.697996 0.991889
H    -3.707503 4.073874 -0.715331
H    -2.508715 4.431414 0.541200
N    -2.644499 2.434233 0.108057
C    -2.190137 0.242763 0.100451
C    -3.233005 1.166210 0.077822
C    4.035638 0.314484 0.048287
C    3.459358 1.573623 0.135266
S    2.786882 -0.916527 -0.005487
H    1.432701 2.449612 0.222005
H    4.055491 2.475231 0.180171
C    2.053992 1.561246 0.159557
C    1.502348 0.285540 0.091641
C    8.302549 -0.788028 -0.092089
C    7.869574 0.572712 -0.010553
C    7.260430 -1.713040 -0.118344
N    6.410948 2.281422 0.102801
N    7.681303 2.661033 0.090223
N    8.601166 1.709058 0.029586
C    8.050290 4.061645 0.216655
H    7.494797 -2.772047 -0.176430
H    5.173705 -2.167062 -0.099025
H    7.264522 4.663501 -0.239799
H    8.153813 4.328882 1.272799
H    9.000332 4.211494 -0.296178
C    5.897614 -1.357547 -0.072911
C    6.489038 0.934197 0.035649
C    5.442670 -0.041551 0.003478
C    11.873833 -2.429407 -0.258234
C    12.052043 -1.075150 -0.177977
S    10.195077 -2.855826 -0.254442
H    10.755065 0.720411 -0.044203
H    13.027633 -0.601260 -0.166299
C    10.826201 -0.357103 -0.111650
C    9.707322 -1.166478 -0.141147
H    12.625773 -3.204712 -0.319733
