71
DPPBTZ-torsion-3-21
C    -8.162527 -1.245883 0.196457
C    -9.364893 -0.484747 0.035278
C    -8.360444 -2.595939 0.478833
N    -11.592550 -0.139329 -0.048130
N    -10.867944 0.946405 -0.279172
N    -9.545341 0.825946 -0.243457
C    -11.495401 2.240321 -0.494705
H    -7.495477 -3.238511 0.617282
H    -9.697735 -4.251860 0.820440
H    -12.502963 2.065948 -0.870876
H    -10.900754 2.797089 -1.219594
H    -11.540889 2.795906 0.446907
C    -9.643137 -3.190029 0.598374
C    -10.651390 -1.089748 0.157376
C    -10.804563 -2.464010 0.441916
H    -11.788198 -2.912173 0.531393
C    -4.348384 -0.208583 -0.016779
C    -5.127266 0.920568 -0.245291
S    -5.385867 -1.603448 0.267938
H    -7.266023 1.433820 -0.348356
H    -4.682915 1.892244 -0.439085
C    -6.511498 0.673921 -0.193812
C    -6.841090 -0.645083 0.074614
C    0.135320 1.533573 -0.188687
C    -0.712748 0.435906 -0.083867
N    -0.677773 2.656088 -0.366045
C    -2.065565 2.304152 -0.379992
C    -0.704778 -0.995422 0.139258
O    0.189134 -1.824339 0.251023
O    -2.956639 3.133879 -0.553858
C    -2.484175 -2.728512 0.369294
C    -0.275949 4.017420 -0.669377
H    -1.138447 4.506084 -1.126595
H    0.569447 4.022912 -1.362221
H    -0.005721 4.576601 0.234278
H    -3.063899 -3.101045 -0.481353
H    -3.057478 -2.871270 1.290995
H    -1.550525 -3.290559 0.440183
N    -2.100804 -1.340506 0.187544
C    -2.061792 0.870722 -0.182080
C    -2.912564 -0.224260 -0.006888
C    4.023885 1.037428 0.062969
C    3.733304 2.338590 0.446655
S    2.557228 0.187452 -0.376135
H    1.965540 3.613959 0.675671
H    4.498346 3.030591 0.772554
C    2.362897 2.652220 0.378595
C    1.567213 1.603527 -0.067046
C    7.937981 -0.986263 -0.114682
C    7.815002 0.406974 0.184807
C    6.720745 -1.628195 -0.332582
N    6.769328 2.367530 0.539238
N    8.090313 2.438970 0.634820
N    8.776663 1.321591 0.443275
C    8.752886 3.676214 1.012891
H    6.715828 -2.690477 -0.559112
H    4.587405 -1.584993 -0.449350
H    8.165374 4.509863 0.628011
H    8.824519 3.747096 2.102672
H    9.752173 3.673863 0.577695
C    5.471022 -0.978563 -0.271902
C    6.549957 1.066531 0.245735
C    5.318475 0.377882 0.010015
C    11.056301 -3.362943 -0.440846
C    11.525619 -2.118330 -0.120298
S    9.329082 -3.382580 -0.569160
H    10.655338 -0.116410 0.278717
H    12.578763 -1.892139 0.007302
C    10.489119 -1.155592 0.027508
C    9.223302 -1.667372 -0.180642
H    11.618805 -4.271341 -0.610266
