71
DPPBTZ-torsion-5-23
C    -8.564671 0.580282 -0.004800
C    -9.568733 -0.440894 0.009519
C    -9.058482 1.883224 -0.022485
N    -11.665438 -1.273014 0.013862
N    -10.716346 -2.198462 0.021617
N    -9.452802 -1.787914 0.024013
C    -11.043072 -3.613386 0.096324
H    -8.357540 2.713193 -0.031230
H    -10.732077 3.241747 -0.043612
H    -12.045517 -3.748116 -0.308742
H    -11.014280 -3.949993 1.137125
H    -10.309562 -4.169281 -0.488446
C    -10.442386 2.195001 -0.029251
C    -10.958813 -0.118958 0.002867
C    -11.414146 1.217190 -0.018258
H    -12.473722 1.448818 -0.023978
C    -4.610713 0.378216 -0.004088
C    -5.120442 -0.915566 0.026179
S    -5.934291 1.541021 -0.030288
H    -7.093377 -1.892481 0.050163
H    -4.471438 -1.785649 0.045793
C    -6.526193 -0.971335 0.028575
C    -7.141680 0.269922 0.000598
C    0.155860 -0.346758 0.006640
C    -0.920491 0.545857 -0.011733
N    -0.390051 -1.629522 0.035818
C    -1.824133 -1.594487 0.036935
C    -1.234002 1.956492 -0.042849
O    -0.547594 2.976079 -0.066034
O    -2.510632 -2.613952 0.060674
C    -3.350515 3.272561 -0.069808
C    0.292237 -2.910619 0.064827
H    -0.492654 -3.669332 0.084160
H    0.913662 -3.014997 0.959960
H    0.910372 -3.057315 -0.826661
H    -3.969781 3.417523 0.821157
H    -3.970870 3.378503 -0.965510
H    -2.565649 4.031349 -0.086907
N    -2.668189 1.991443 -0.042214
C    -2.137614 -0.183760 0.005924
C    -3.213882 0.708746 -0.012933
C    4.083701 0.092529 -0.010659
C    3.467131 1.334336 -0.034192
S    2.876041 -1.179208 0.017581
H    1.412735 2.147824 -0.046183
H    4.033979 2.255658 -0.054253
C    2.062097 1.277918 -0.029930
C    1.552260 -0.016370 -0.002709
C    8.377110 -0.865045 0.006994
C    7.903691 0.477487 -0.024556
C    7.379023 -1.832350 0.024460
N    6.394838 2.142762 -0.067430
N    7.656457 2.556278 -0.090062
N    8.605166 1.632209 -0.063735
C    7.982737 3.973303 -0.075374
H    7.670069 -2.877870 0.059047
H    5.302916 -2.352801 0.038813
H    7.250077 4.503570 -0.684535
H    7.952225 4.353653 0.950156
H    8.985767 4.090269 -0.484344
C    6.000950 -1.520637 0.016305
C    6.513025 0.797010 -0.026524
C    5.503860 -0.218208 -0.007637
C    12.278062 -1.400433 0.160972
C    11.776685 -2.263937 -0.775298
S    11.031552 -0.436889 0.879876
H    9.780432 -2.737738 -1.624505
H    12.392530 -2.944031 -1.353799
C    10.363763 -2.159689 -0.915810
C    9.793075 -1.228739 -0.075791
H    13.307440 -1.268196 0.466835
