71
DPPBTZ-torsion-1-17
C    -8.600605 -0.965445 -0.089307
C    -9.311274 0.264855 0.055596
C    -9.410286 -2.087804 -0.260421
N    -11.114922 1.610386 0.184917
N    -9.955710 2.247460 0.284971
N    -8.844882 1.521556 0.223100
C    -9.901580 3.680269 0.526422
H    -8.944438 -3.058065 -0.396638
H    -11.375934 -2.955749 -0.418920
H    -10.824809 4.119363 0.149602
H    -9.035723 4.086519 0.002803
H    -9.807458 3.875964 1.598907
C    -10.827374 -2.028441 -0.280484
C    -10.736031 0.320074 0.030926
C    -11.517932 -0.842531 -0.138751
H    -12.601272 -0.794089 -0.158020
C    -4.652094 -0.648777 -0.055133
C    -4.993687 -1.997521 0.002324
S    -6.105674 0.342367 -0.100001
H    -6.810997 -3.212856 0.060471
H    -4.243524 -2.780967 0.046805
C    -6.379211 -2.220353 0.003818
C    -7.145733 -1.064605 -0.056234
C    0.168721 -0.782523 -0.007637
C    -1.009285 -0.029925 -0.048991
N    -0.215831 -2.122126 0.044932
C    -1.643066 -2.263736 0.038977
C    -1.494094 1.330458 -0.109121
O    -0.938086 2.426342 -0.149827
O    -2.199056 -3.359749 0.080405
C    -3.756722 2.374628 -0.172137
C    0.618662 -3.308683 0.101403
H    -0.067037 -4.157813 0.130990
H    1.241662 -3.319794 1.001470
H    1.256764 -3.394132 -0.783975
H    -4.395132 2.459852 0.712950
H    -4.380958 2.383481 -1.071297
H    -3.071494 3.224079 -0.203141
N    -2.921407 1.188470 -0.115025
C    -2.127464 -0.903441 -0.021982
C    -3.305646 -0.150776 -0.062703
C    4.013304 0.136755 -0.013265
C    3.247711 1.292440 -0.068673
S    2.970365 -1.273424 0.036824
H    1.109359 1.845809 -0.109925
H    3.696401 2.276098 -0.106450
C    1.860893 1.063266 -0.070811
C    1.513593 -0.283306 -0.017076
C    8.401034 -0.295288 0.040937
C    7.762077 0.982645 -0.025164
C    7.514438 -1.369491 0.089443
N    6.055725 2.445731 -0.114715
N    7.252561 3.015770 -0.141840
N    8.309045 2.217580 -0.087379
C    7.398110 4.462291 -0.151880
H    7.910188 -2.379550 0.144217
H    5.522546 -2.139382 0.115156
H    6.542295 4.886928 -0.676505
H    7.429503 4.843830 0.873324
H    8.327888 4.708047 -0.664931
C    6.112493 -1.228251 0.072368
C    6.341659 1.127145 -0.042414
C    5.458740 0.001785 0.005220
C    12.185335 -1.368160 0.112199
C    12.151076 -0.001513 0.055524
S    10.592468 -2.048519 0.128520
H    10.590524 1.574275 -0.021084
H    13.041570 0.617492 0.036511
C    10.828130 0.519702 0.024372
C    9.848079 -0.453018 0.057593
H    13.048805 -2.019015 0.145220
