71
DPPBTZ-torsion-3-6
C    -8.437446 0.346171 -0.688760
C    -9.435152 -0.618905 -0.336895
C    -8.912504 1.441091 -1.407535
N    -11.509527 -1.499709 -0.238694
N    -10.583142 -2.229169 0.366811
N    -9.333157 -1.779358 0.349472
C    -10.907799 -3.512314 0.969143
H    -8.214234 2.215240 -1.713085
H    -10.550528 2.495400 -2.331002
H    -11.966718 -3.504149 1.225447
H    -10.292998 -3.641852 1.860354
H    -10.702698 -4.320816 0.260911
C    -10.273984 1.607499 -1.769860
C    -10.802503 -0.444407 -0.705377
C    -11.240108 0.683849 -1.432291
H    -12.282672 0.805224 -1.705663
C    -4.544612 0.473188 0.013346
C    -5.055814 -0.693949 0.569761
S    -5.837904 1.385410 -0.759182
H    -7.008166 -1.697241 0.747030
H    -4.421706 -1.404626 1.091763
C    -6.441471 -0.850935 0.382061
C    -7.036963 0.184580 -0.320500
C    0.156367 0.115855 0.934232
C    -0.898992 0.853333 0.432172
N    -0.369583 -1.077867 1.423435
C    -1.795541 -1.119383 1.277376
C    -1.192527 2.097365 -0.253082
O    -0.506787 3.046037 -0.600362
O    -2.477568 -2.060321 1.680305
C    -3.290458 3.144398 -1.112077
C    0.335803 -2.119285 2.150849
H    -0.425043 -2.722948 2.649263
H    1.009726 -1.680686 2.892278
H    0.915287 -2.764085 1.482024
H    -4.043170 3.598591 -0.459632
H    -3.761037 2.837288 -2.051785
H    -2.512681 3.880174 -1.328084
N    -2.618128 2.035071 -0.461473
C    -2.111384 0.135688 0.625558
C    -3.162744 0.862288 0.060985
C    4.084603 0.333068 0.539794
C    3.626162 1.489677 1.143588
S    2.734604 -0.736046 0.181220
H    1.688851 2.347974 1.777629
H    4.295071 2.283178 1.448871
C    2.223115 1.522736 1.321127
C    1.575567 0.405074 0.839309
C    8.212156 -0.805154 -0.524468
C    7.899847 0.455422 0.074738
C    7.104156 -1.623539 -0.730175
N    6.601368 2.067581 0.956346
N    7.888592 2.381812 0.909136
N    8.718577 1.479033 0.406521
C    8.378580 3.636197 1.456683
H    7.245606 -2.602861 -1.178259
H    5.001567 -1.979835 -0.594845
H    7.600648 4.389547 1.332524
H    8.611513 3.517234 2.519363
H    9.279572 3.916877 0.911339
C    5.785890 -1.257238 -0.387626
C    6.565355 0.826981 0.421236
C    5.448587 -0.036830 0.192664
C    11.604326 -2.412739 -1.704760
C    11.895837 -1.177875 -1.193146
S    9.907721 -2.753852 -1.626211
H    10.766305 0.504624 -0.288423
H    12.900821 -0.772150 -1.149046
C    10.744695 -0.484372 -0.726689
C    9.569667 -1.192715 -0.882786
H    12.281506 -3.144703 -2.124209
