71
DPPBTZ-torsion-4-8
C    -8.541435 0.443611 -0.118929
C    -9.496841 -0.586905 0.157388
C    -9.095095 1.686675 -0.418639
N    -11.552116 -1.476393 0.428261
N    -10.561117 -2.334038 0.627621
N    -9.318411 -1.887125 0.482666
C    -10.822807 -3.733091 0.925020
H    -8.433626 2.518832 -0.642728
H    -10.829617 2.936862 -0.693570
H    -11.808632 -3.799979 1.384186
H    -10.051250 -4.091996 1.606835
H    -10.801349 -4.322392 0.003236
C    -10.491738 1.933779 -0.449681
C    -10.900080 -0.330323 0.123867
C    -11.416839 0.947372 -0.182048
H    -12.485776 1.129855 -0.203509
C    -4.582986 0.407643 -0.186468
C    -5.032043 -0.870228 0.128008
S    -5.958402 1.484240 -0.416830
H    -6.957607 -1.899876 0.412017
H    -4.343737 -1.689707 0.310490
C    -6.433759 -0.981557 0.181936
C    -7.105704 0.199710 -0.087866
C    0.210246 -0.101675 -0.160389
C    -0.904405 0.721449 -0.334005
N    -0.272834 -1.370349 0.152093
C    -1.708138 -1.395979 0.187635
C    -1.282572 2.079154 -0.651813
O    -0.644299 3.097935 -0.909064
O    -2.344355 -2.415949 0.444391
C    -3.457664 3.272208 -0.893533
C    0.470521 -2.585887 0.429950
H    -0.276251 -3.356340 0.631922
H    1.114465 -2.471750 1.307832
H    1.077069 -2.891849 -0.428576
H    -4.065322 3.576906 -0.035461
H    -4.099792 3.161407 -1.773177
H    -2.708864 4.041553 -1.092354
N    -2.716782 2.054793 -0.617104
C    -2.087352 -0.038161 -0.128944
C    -3.202370 0.785461 -0.303922
C    4.108957 0.483487 -0.368539
C    3.449483 1.660428 -0.641325
S    2.971657 -0.800884 -0.053805
H    1.353553 2.372771 -0.771656
H    3.973842 2.580503 -0.874414
C    2.041720 1.553270 -0.587939
C    1.594254 0.275016 -0.279228
C    8.431079 -0.412088 -0.408444
C    7.809373 0.279252 0.678993
C    7.563222 -0.763421 -1.438372
N    6.113989 1.214059 1.835497
N    7.285886 1.273344 2.452186
N    8.336460 0.748120 1.833323
C    7.429300 1.951182 3.730692
H    7.954953 -1.289854 -2.304003
H    5.577958 -0.789432 -2.277688
H    6.458895 1.941348 4.225936
H    8.173688 1.418605 4.323390
H    7.755228 2.983731 3.572583
C    6.176786 -0.472365 -1.428829
C    6.413243 0.572984 0.683472
C    5.558955 0.207562 -0.392012
C    12.156063 -1.519637 -1.037634
C    12.120829 -0.876981 0.169396
S    10.590269 -1.582460 -1.775696
H    10.582409 0.107074 1.431468
H    12.995665 -0.730387 0.793605
C    10.818171 -0.422528 0.517744
C    9.857197 -0.719689 -0.427037
H    13.005972 -1.961352 -1.540497
