71
DPPBTZ-torsion-4-36
C    -8.555361 0.529413 -0.001843
C    -9.545345 -0.505525 0.004095
C    -9.067052 1.825554 -0.009046
N    -11.630426 -1.366283 0.016902
N    -10.668697 -2.278597 0.026590
N    -9.410922 -1.850859 0.015596
C    -10.975959 -3.699047 -0.020683
H    -8.377558 2.665067 -0.016532
H    -10.759137 3.161127 -0.013272
H    -11.975898 -3.839899 0.388489
H    -10.234022 -4.233502 0.573358
H    -10.943932 -4.054984 -1.054941
C    -10.455104 2.118367 -0.007613
C    -10.939713 -0.202631 0.005219
C    -11.413371 1.127298 0.000757
H    -12.476028 1.344424 0.002559
C    -4.598937 0.381703 -0.001223
C    -5.090905 -0.919309 -0.004540
S    -5.938386 1.526524 0.001805
H    -7.050183 -1.923525 -0.007042
H    -4.430037 -1.780632 -0.006777
C    -6.495750 -0.994394 -0.004831
C    -7.128288 0.238573 -0.001972
C    0.177378 -0.277900 -0.002269
C    -0.911401 0.600234 -0.000247
N    -0.351138 -1.568361 -0.005485
C    -1.785397 -1.552939 -0.005637
C    -1.244182 2.006653 0.003169
O    -0.571802 3.035972 0.005740
O    -2.458005 -2.581883 -0.008289
C    -3.378490 3.293830 0.006188
C    0.348727 -2.840274 -0.008487
H    -0.425594 -3.610008 -0.010494
H    0.970027 -2.959466 0.884890
H    0.970316 -2.955085 -0.902235
H    -4.000035 3.408619 0.899977
H    -3.999948 3.413050 -0.887080
H    -2.604064 4.063462 0.008141
N    -2.678682 2.021926 0.003062
C    -2.118267 -0.146216 -0.002219
C    -3.206813 0.731520 -0.000180
C    4.099050 0.216077 -0.000760
C    3.464114 1.449727 0.002190
S    2.908680 -1.072927 -0.003713
H    1.399071 2.234151 0.003749
H    4.017439 2.379328 0.004434
C    2.060663 1.373326 0.001845
C    1.568555 0.071475 -0.001268
C    8.413489 -0.692840 -0.000253
C    7.917514 0.648701 0.002540
C    7.415204 -1.665371 -0.006327
N    6.380676 2.291326 0.011870
N    7.632436 2.728405 0.022073
N    8.595705 1.818360 0.012341
C    7.934583 4.149511 -0.032764
H    7.698653 -2.713915 -0.011575
H    5.351344 -2.214293 -0.011895
H    7.133517 4.688066 0.473493
H    8.888779 4.314562 0.467516
H    8.000791 4.479481 -1.074062
C    6.037024 -1.371761 -0.006632
C    6.521323 0.947549 0.002205
C    5.521175 -0.076090 -0.000989
C    12.058386 -2.173031 0.006011
C    12.173142 -0.809594 0.000427
S    10.400969 -2.676212 0.008395
H    10.793398 0.928365 -0.006381
H    13.125733 -0.290887 -0.001825
C    10.914817 -0.146759 -0.002132
C    9.834702 -1.007673 0.001325
H    12.845878 -2.914744 0.009101
