71
DPPBTZ-torsion-3-8
C    -8.414225 0.254658 -0.798664
C    -9.430178 -0.607778 -0.274910
C    -8.866298 1.197228 -1.719561
N    -11.520033 -1.419332 -0.025483
N    -10.609635 -2.032601 0.717370
N    -9.351911 -1.614887 0.623834
C    -10.959754 -3.169142 1.554346
H    -8.153133 1.886356 -2.163124
H    -10.480995 2.079142 -2.843262
H    -12.020804 -3.096902 1.790952
H    -10.355610 -3.130549 2.461305
H    -10.760350 -4.102854 1.019839
C    -10.222817 1.312328 -2.118678
C    -10.792361 -0.485873 -0.681616
C    -11.206482 0.487155 -1.616759
H    -12.245384 0.570082 -1.917115
C    -4.523265 0.450856 -0.103776
C    -5.057577 -0.576137 0.665774
S    -5.796338 1.216564 -1.049374
H    -7.028650 -1.492698 1.019865
H    -4.438827 -1.180218 1.323174
C    -6.445160 -0.743443 0.501494
C    -7.018358 0.144976 -0.394308
C    0.147239 0.259872 0.984573
C    -0.877154 0.869100 0.294779
N    -0.405902 -0.787367 1.715720
C    -1.824848 -0.862970 1.531544
C    -1.140902 1.937792 -0.653229
O    -0.435304 2.769742 -1.197659
O    -2.527991 -1.696958 2.101418
C    -3.207146 2.787860 -1.769421
C    0.293233 -1.672567 2.629744
H    -0.471557 -2.250120 3.151954
H    0.882166 -1.097769 3.351070
H    0.959651 -2.357386 2.095047
H    -3.958481 3.394375 -1.253428
H    -3.671913 2.278145 -2.619671
H    -2.412253 3.440417 -2.137184
N    -2.565228 1.849552 -0.867506
C    -2.105077 0.215974 0.605446
C    -3.134662 0.820561 -0.118432
C    4.087952 0.375001 0.627192
C    3.686037 1.443447 1.403733
S    2.686927 -0.555461 0.111127
H    1.788847 2.286679 2.174473
H    4.391206 2.148601 1.823129
C    2.281035 1.517508 1.589643
C    1.586077 0.521063 0.948766
C    8.159973 -0.792838 -0.611744
C    7.910654 0.361484 0.195042
C    7.011396 -1.499593 -0.957583
N    6.692655 1.868009 1.339696
N    7.995664 2.112910 1.349497
N    8.780527 1.265073 0.700024
C    8.547922 3.224321 2.106376
H    7.103457 -2.393035 -1.568454
H    4.890227 -1.753720 -0.890945
H    7.816606 4.032636 2.108823
H    8.757186 2.912426 3.134321
H    9.471850 3.540118 1.622051
C    5.710880 -1.123830 -0.559208
C    6.594598 0.742023 0.598145
C    5.435126 -0.005428 0.222179
C    11.472881 -2.363577 -2.042023
C    11.825175 -1.249462 -1.330689
S    9.759587 -2.619793 -2.022684
H    10.778698 0.317220 -0.157636
H    12.849996 -0.912183 -1.218594
C    10.708265 -0.581873 -0.755408
C    9.498630 -1.188770 -1.028797
H    12.113790 -3.051038 -2.577663
