71
DPPBTZ-torsion-3-18
C    -8.114143 -1.306013 0.003590
C    -9.332335 -0.553002 -0.006713
C    -8.283685 -2.689064 0.015188
N    -11.566816 -0.243846 -0.024119
N    -10.865186 0.880802 -0.036427
N    -9.540279 0.782895 -0.022991
C    -11.519659 2.178572 0.005617
H    -7.405393 -3.328369 0.026299
H    -9.585914 -4.406950 0.023132
H    -12.521481 2.062819 -0.406827
H    -10.933654 2.880887 -0.587958
H    -11.581766 2.533467 1.038868
C    -9.553639 -3.321286 0.013865
C    -10.605867 -1.196533 -0.007720
C    -10.730132 -2.602782 0.001216
H    -11.704136 -3.079963 -0.000537
C    -4.322223 -0.168469 0.003865
C    -5.125151 0.967127 0.003890
S    -5.330600 -1.613284 0.003135
H    -7.274132 1.446370 0.003252
H    -4.701513 1.966793 0.004303
C    -6.503795 0.686605 0.003526
C    -6.805769 -0.665882 0.003478
C    0.137666 1.667714 0.004443
C    -0.697752 0.548736 0.004123
N    -0.703249 2.786664 0.004806
C    -2.086216 2.409840 0.004672
C    -0.665949 -0.897931 0.003913
O    0.243668 -1.719847 0.003833
O    -2.997934 3.235389 0.004941
C    -2.408752 -2.681092 0.003402
C    -0.358781 4.195199 0.005150
H    -1.306535 4.736723 0.004890
H    0.210064 4.470109 -0.889295
H    0.209371 4.469894 0.900118
H    -2.979966 -2.951779 -0.890396
H    -2.980312 -2.952201 0.896848
H    -1.464406 -3.229399 0.003446
N    -2.053022 -1.273891 0.003824
C    -2.054082 0.965757 0.004220
C    -2.886608 -0.157854 0.003987
C    4.028063 1.108057 0.003246
C    3.799353 2.476261 0.003697
S    2.513372 0.231049 0.003167
H    2.104398 3.845293 0.005084
H    4.603670 3.199767 0.003576
C    2.436117 2.818090 0.004354
C    1.573279 1.724051 0.004323
C    7.872420 -1.052626 0.000153
C    7.803366 0.376040 -0.005327
C    6.628006 -1.679584 0.009891
N    6.832320 2.405424 -0.016941
N    8.158069 2.444991 -0.030062
N    8.802335 1.287040 -0.019056
C    8.875009 3.708306 0.021808
H    6.582266 -2.764772 0.017453
H    4.493956 -1.582025 0.019634
H    8.284962 4.458592 -0.504776
H    9.020046 4.016413 1.061908
H    9.842901 3.569810 -0.459739
C    5.401499 -0.985167 0.011201
C    6.561622 1.081293 -0.003972
C    5.300340 0.405486 0.002976
C    10.902907 -3.561215 -0.006848
C    11.422975 -2.295609 -0.005108
S    9.170980 -3.541957 -0.005734
H    10.630496 -0.222928 -0.001218
H    12.487566 -2.087767 -0.005495
C    10.422543 -1.284703 -0.002695
C    9.133353 -1.780488 -0.002428
H    11.430523 -4.505630 -0.008986
