71
DPPBTZ-torsion-4-35
C    -8.554873 0.527853 0.021455
C    -9.544327 -0.506531 -0.025790
C    -9.067219 1.822598 0.076148
N    -11.628974 -1.367755 -0.060096
N    -10.666774 -2.279061 -0.092591
N    -9.409210 -1.850765 -0.079602
C    -10.973170 -3.695636 -0.209789
H    -8.378151 2.661777 0.110819
H    -10.760005 3.156089 0.132803
H    -11.973836 -3.856768 0.190021
H    -10.232118 -4.258121 0.358939
H    -10.938932 -4.000662 -1.260122
C    -10.455433 2.114415 0.088448
C    -10.938865 -0.204642 -0.013305
C    -11.413196 1.123737 0.046049
H    -12.475965 1.340100 0.055785
C    -4.598395 0.381480 0.029036
C    -5.089708 -0.917508 -0.047696
S    -5.938413 1.523999 0.090369
H    -7.048493 -1.920634 -0.112425
H    -4.428417 -1.777205 -0.095065
C    -6.494512 -0.992873 -0.057238
C    -7.127654 0.237894 0.010959
C    0.178208 -0.275368 0.006024
C    -0.910983 0.600832 0.054234
N    -0.349544 -1.563785 -0.071399
C    -1.783850 -1.548941 -0.074870
C    -1.244489 2.004722 0.135775
O    -0.572636 3.032440 0.199071
O    -2.455860 -2.576399 -0.136972
C    -3.379463 3.288932 0.204842
C    0.351060 -2.833267 -0.143354
H    -0.422806 -3.602056 -0.189809
H    0.970472 -3.001429 0.743434
H    0.974692 -2.898209 -1.040694
H    -4.004148 3.352260 1.101560
H    -3.997908 3.458771 -0.682310
H    -2.605463 4.057462 0.253445
N    -2.678972 2.019513 0.131524
C    -2.117486 -0.144755 0.006538
C    -3.206444 0.731126 0.054231
C    4.099142 0.219221 0.044471
C    3.464191 1.450460 0.116232
S    2.910149 -1.067540 -0.040410
H    1.398513 2.232438 0.162493
H    4.017110 2.378825 0.169933
C    2.060671 1.373649 0.109848
C    1.569317 0.073825 0.031216
C    8.412736 -0.690503 0.046466
C    7.915819 0.645808 -0.068924
C    7.415766 -1.657933 0.158321
N    6.376714 2.282587 -0.185916
N    7.627737 2.717470 -0.248442
N    8.592180 1.810181 -0.191096
C    7.926657 4.125839 -0.450982
H    7.700419 -2.702007 0.251656
H    5.351849 -2.200605 0.265695
H    7.131229 4.712256 0.008744
H    8.887133 4.341600 0.017047
H    7.978347 4.348552 -1.521153
C    6.037330 -1.364273 0.162354
C    6.519728 0.944453 -0.065683
C    5.521378 -0.073479 0.053397
C    12.058787 -2.166520 0.115132
C    12.171583 -0.810533 -0.028783
S    10.402528 -2.665302 0.206044
H    10.789735 0.919486 -0.176502
H    13.123183 -0.295587 -0.104809
C    10.912637 -0.149998 -0.068051
C    9.834071 -1.005225 0.046172
H    12.847124 -2.905021 0.173695
