71
DPPBTZ-torsion-3-23
C    -8.197673 -1.192794 0.284877
C    -9.387577 -0.437888 0.029788
C    -8.416991 -2.502272 0.707376
N    -11.609259 -0.075020 -0.115414
N    -10.867416 0.970477 -0.452623
N    -9.547014 0.837736 -0.389195
C    -11.474756 2.241857 -0.812066
H    -7.562454 -3.137288 0.923610
H    -9.780502 -4.095107 1.208405
H    -12.478875 2.040766 -1.184118
H    -10.862129 2.712742 -1.581448
H    -11.526918 2.893319 0.065576
C    -9.708944 -3.063870 0.874958
C    -10.683481 -1.009964 0.201023
C    -10.858502 -2.343913 0.628699
H    -11.849112 -2.767395 0.754216
C    -4.367964 -0.233173 0.003753
C    -5.128534 0.875841 -0.349808
S    -5.427069 -1.576952 0.422021
H    -7.259148 1.403224 -0.527641
H    -4.668789 1.816205 -0.639301
C    -6.516606 0.654051 -0.286858
C    -6.866674 -0.625279 0.114565
C    0.133157 1.424645 -0.303855
C    -0.724325 0.355930 -0.094534
N    -0.658799 2.535654 -0.592345
C    -2.051120 2.203894 -0.591086
C    -0.734708 -1.043399 0.286513
O    0.145766 -1.861503 0.508411
O    -2.928236 3.025699 -0.853067
C    -2.541881 -2.718561 0.682510
C    -0.212945 3.859306 -0.988185
H    -1.033458 4.322575 -1.539487
H    0.674353 3.787125 -1.622013
H    0.018063 4.489963 -0.121625
H    -3.117304 -3.177492 -0.127917
H    -3.126667 -2.750572 1.607557
H    -1.616415 -3.280084 0.827382
N    -2.137834 -1.364657 0.351023
C    -2.067989 0.794770 -0.256310
C    -2.932190 -0.265633 0.028153
C    4.018997 0.973262 0.072912
C    3.667310 2.181468 0.654473
S    2.606851 0.197413 -0.615656
H    1.839347 3.364475 0.979828
H    4.389989 2.816765 1.149028
C    2.292993 2.480084 0.547548
C    1.565544 1.517766 -0.133620
C    7.992712 -0.920730 -0.197110
C    7.816647 0.411699 0.292326
C    6.805714 -1.550647 -0.564075
N    6.699811 2.277892 0.870252
N    8.012278 2.363331 1.040955
N    8.738689 1.300328 0.726338
C    8.620959 3.547216 1.624616
H    6.841240 -2.569554 -0.938732
H    4.678424 -1.537930 -0.774098
H    8.025926 4.414119 1.337122
H    8.643472 3.460063 2.715338
H    9.637733 3.631565 1.241125
C    5.536174 -0.943466 -0.472530
C    6.531846 1.028075 0.383650
C    5.333094 0.354605 -0.009319
C    11.189770 -3.157019 -0.706611
C    11.607933 -1.962342 -0.187246
S    9.471457 -3.195072 -0.922127
H    10.663209 -0.058807 0.452086
H    12.647161 -1.734295 0.023867
C    10.538500 -1.053862 0.045929
C    9.298907 -1.557242 -0.296356
H    11.785195 -4.018838 -0.976855
