tif-opt.log
 OpenBabel10102318173D
Gaussian 16 #p opt b3lyp/6-31g*
 52 58  0  0  0  0  0  0  0  0999 V2000
    7.6186    0.4427   -0.0004 C   0  0  0  0  0  0  0  0  0  0  0  0
    6.9651   -0.7480   -0.0006 C   0  0  0  0  0  0  0  0  0  0  0  0
    6.5360    1.8199    0.0001 S   0  0  0  0  0  0  0  0  0  0  0  0
    0.8492   -1.1045    0.0001 C   0  0  0  0  0  0  0  0  0  0  0  0
    1.3718    0.2079    0.0002 C   0  0  0  0  0  0  0  0  0  0  0  0
    0.5232    1.3224    0.0002 C   0  0  0  0  0  0  0  0  0  0  0  0
   -0.8492    1.1046    0.0001 C   0  0  0  0  0  0  0  0  0  0  0  0
   -1.3718   -0.2078    0.0002 C   0  0  0  0  0  0  0  0  0  0  0  0
   -0.5232   -1.3223    0.0002 C   0  0  0  0  0  0  0  0  0  0  0  0
   -1.9736    2.1408   -0.0003 C   0  0  0  0  0  0  0  0  0  0  0  0
   -3.2111    1.2421   -0.0001 C   0  0  0  0  0  0  0  0  0  0  0  0
   -2.8346   -0.1281    0.0000 C   0  0  0  0  0  0  0  0  0  0  0  0
    1.9735   -2.1407   -0.0002 C   0  0  0  0  0  0  0  0  0  0  0  0
    3.2110   -1.2421   -0.0001 C   0  0  0  0  0  0  0  0  0  0  0  0
    2.8346    0.1282    0.0003 C   0  0  0  0  0  0  0  0  0  0  0  0
   -4.5416    1.6130   -0.0002 C   0  0  0  0  0  0  0  0  0  0  0  0
   -5.5324    0.6076   -0.0002 C   0  0  0  0  0  0  0  0  0  0  0  0
   -5.1346   -0.7562    0.0002 C   0  0  0  0  0  0  0  0  0  0  0  0
   -3.7903   -1.1399    0.0003 C   0  0  0  0  0  0  0  0  0  0  0  0
    4.5416   -1.6130   -0.0004 C   0  0  0  0  0  0  0  0  0  0  0  0
    5.5324   -0.6076   -0.0003 C   0  0  0  0  0  0  0  0  0  0  0  0
    5.1347    0.7561    0.0004 C   0  0  0  0  0  0  0  0  0  0  0  0
    3.7903    1.1400    0.0007 C   0  0  0  0  0  0  0  0  0  0  0  0
   -1.9213    3.0263    1.2650 C   0  0  0  0  0  0  0  0  0  0  0  0
   -1.9210    3.0266   -1.2653 C   0  0  0  0  0  0  0  0  0  0  0  0
    1.9212   -3.0261    1.2651 C   0  0  0  0  0  0  0  0  0  0  0  0
    1.9210   -3.0266   -1.2651 C   0  0  0  0  0  0  0  0  0  0  0  0
   -0.9309   -2.3309    0.0005 H   0  0  0  0  0  0  0  0  0  0  0  0
    0.9309    2.3310    0.0005 H   0  0  0  0  0  0  0  0  0  0  0  0
    4.8372   -2.6599   -0.0008 H   0  0  0  0  0  0  0  0  0  0  0  0
    3.5063    2.1887    0.0013 H   0  0  0  0  0  0  0  0  0  0  0  0
   -4.8373    2.6598   -0.0005 H   0  0  0  0  0  0  0  0  0  0  0  0
   -3.5062   -2.1886    0.0008 H   0  0  0  0  0  0  0  0  0  0  0  0
   -0.9984    3.6176    1.2868 H   0  0  0  0  0  0  0  0  0  0  0  0
   -2.7672    3.7233    1.2852 H   0  0  0  0  0  0  0  0  0  0  0  0
   -1.9586    2.4175    2.1740 H   0  0  0  0  0  0  0  0  0  0  0  0
   -1.9576    2.4180   -2.1743 H   0  0  0  0  0  0  0  0  0  0  0  0
   -2.7672    3.7233   -1.2856 H   0  0  0  0  0  0  0  0  0  0  0  0
   -0.9984    3.6183   -1.2863 H   0  0  0  0  0  0  0  0  0  0  0  0
    0.9984   -3.6183   -1.2860 H   0  0  0  0  0  0  0  0  0  0  0  0
    1.9574   -2.4180   -2.1743 H   0  0  0  0  0  0  0  0  0  0  0  0
    2.7672   -3.7232   -1.2855 H   0  0  0  0  0  0  0  0  0  0  0  0
    0.9982   -3.6172    1.2870 H   0  0  0  0  0  0  0  0  0  0  0  0
    2.7670   -3.7234    1.2853 H   0  0  0  0  0  0  0  0  0  0  0  0
    1.9587   -2.4173    2.1741 H   0  0  0  0  0  0  0  0  0  0  0  0
   -7.4711    1.7077   -0.0009 H   0  0  0  0  0  0  0  0  0  0  0  0
    7.4711   -1.7079   -0.0009 H   0  0  0  0  0  0  0  0  0  0  0  0
   -6.5359   -1.8200    0.0001 S   0  0  0  0  0  0  0  0  0  0  0  0
   -6.9651    0.7479   -0.0006 C   0  0  0  0  0  0  0  0  0  0  0  0
   -7.6186   -0.4429   -0.0002 C   0  0  0  0  0  0  0  0  0  0  0  0
   -8.6875   -0.6115   -0.0002 H   0  0  0  0  0  0  0  0  0  0  0  0
    8.6876    0.6112   -0.0006 H   0  0  0  0  0  0  0  0  0  0  0  0
  1  3  1  0  0  0  0
  2  1  2  0  0  0  0
  2 21  1  0  0  0  0
  3 22  1  0  0  0  0
  4  9  2  0  0  0  0
  4  5  1  0  0  0  0
  5  6  2  0  0  0  0
  5 15  1  0  0  0  0
  6 29  1  0  0  0  0
  7  8  2  0  0  0  0
  7  6  1  0  0  0  0
  8  9  1  0  0  0  0
  9 28  1  0  0  0  0
 10 11  1  0  0  0  0
 10  7  1  0  0  0  0
 10 24  1  0  0  0  0
 11 12  1  0  0  0  0
 12  8  1  0  0  0  0
 12 19  2  0  0  0  0
 13 14  1  0  0  0  0
 13  4  1  0  0  0  0
 13 26  1  0  0  0  0
 14 15  1  0  0  0  0
 15 23  2  0  0  0  0
 16 17  1  0  0  0  0
 16 11  2  0  0  0  0
 17 18  2  0  0  0  0
 18 19  1  0  0  0  0
 19 33  1  0  0  0  0
 20 21  1  0  0  0  0
 20 14  2  0  0  0  0
 21 22  2  0  0  0  0
 22 23  1  0  0  0  0
 23 31  1  0  0  0  0
 24 35  1  0  0  0  0
 24 34  1  0  0  0  0
 24 36  1  0  0  0  0
 25 10  1  0  0  0  0
 26 44  1  0  0  0  0
 26 43  1  0  0  0  0
 26 45  1  0  0  0  0
 27 13  1  0  0  0  0
 30 20  1  0  0  0  0
 32 16  1  0  0  0  0
 37 25  1  0  0  0  0
 38 25  1  0  0  0  0
 39 25  1  0  0  0  0
 40 27  1  0  0  0  0
 41 27  1  0  0  0  0
 42 27  1  0  0  0  0
 46 49  1  0  0  0  0
 47  2  1  0  0  0  0
 48 18  1  0  0  0  0
 49 50  2  0  0  0  0
 49 17  1  0  0  0  0
 50 48  1  0  0  0  0
 51 50  1  0  0  0  0
 52  1  1  0  0  0  0
M  END
