71
DPPBTZ-torsion-4-27
C    -8.533513 0.481946 0.006139
C    -9.491094 -0.582467 -0.027503
C    -9.084397 1.761814 0.007592
N    -11.548532 -1.506182 -0.076613
N    -10.559686 -2.388940 -0.059042
N    -9.315715 -1.923137 -0.034144
C    -10.822111 -3.817059 -0.135753
H    -8.420987 2.621847 0.029279
H    -10.816159 3.045419 -0.014739
H    -11.825463 -3.995175 0.249886
H    -10.076475 -4.338551 0.465128
H    -10.757896 -4.154504 -1.174709
C    -10.480522 2.012389 -0.018568
C    -10.893792 -0.322082 -0.053911
C    -11.407846 0.992771 -0.048211
H    -12.476436 1.177508 -0.067599
C    -4.575538 0.454528 0.099896
C    -5.026482 -0.860176 0.059249
S    -5.949201 1.557631 0.092893
H    -6.953391 -1.923578 -0.010068
H    -4.339527 -1.700830 0.056449
C    -6.428264 -0.978166 0.023463
C    -7.098338 0.234496 0.034942
C    0.216210 -0.056315 0.212404
C    -0.896900 0.786648 0.199424
N    -0.268518 -1.361560 0.172110
C    -1.703676 -1.391923 0.132634
C    -1.272961 2.181439 0.220041
O    -0.633256 3.230628 0.258036
O    -2.341241 -2.442147 0.092579
C    -3.446012 3.402054 0.190162
C    0.473101 -2.609482 0.160245
H    -0.274517 -3.403916 0.115643
H    1.070754 -2.731226 1.069368
H    1.125467 -2.680937 -0.715923
H    -4.092789 3.482105 1.069739
H    -4.048577 3.518056 -0.716393
H    -2.696116 4.194885 0.224773
N    -2.707073 2.152530 0.183226
C    -2.080880 0.002694 0.151828
C    -3.194458 0.846433 0.142402
C    4.114092 0.552476 0.349265
C    3.457969 1.761792 0.338324
S    2.975583 -0.767192 0.291559
H    1.363576 2.489856 0.278403
H    3.984546 2.709474 0.362893
C    2.049822 1.648531 0.289394
C    1.600911 0.334920 0.257967
C    8.465811 -0.182765 0.477351
C    7.753533 -0.060334 -0.757510
C    7.672490 -0.060452 1.614190
N    5.957692 0.246333 -2.086694
N    7.094045 0.070231 -2.746158
N    8.197944 -0.121037 -2.033839
C    7.119667 0.018013 -4.199150
H    8.134814 -0.142758 2.593667
H    5.737706 0.250838 2.513893
H    6.267352 0.586092 -4.570645
H    8.057687 0.453993 -4.544008
H    7.049768 -1.020145 -4.537900
C    6.274480 0.168539 1.573304
C    6.346170 0.170868 -0.794075
C    5.568772 0.294751 0.388871
C    12.271797 -0.804152 1.269452
C    12.137340 -0.784124 -0.091664
S    10.754419 -0.554465 2.066668
H    10.483487 -0.515333 -1.547898
H    12.967774 -0.921022 -0.775842
C    10.795932 -0.565177 -0.513081
C    9.904996 -0.417948 0.530348
H    13.169611 -0.950053 1.855093
