71
DPPBTZ-torsion-1-21
C    -8.596720 -0.906620 0.260772
C    -9.326427 0.240763 -0.171814
C    -9.377663 -1.968271 0.709758
N    -11.157203 1.477484 -0.616031
N    -10.010759 2.085584 -0.893256
N    -8.884410 1.422754 -0.655419
C    -9.984171 3.456984 -1.375834
H    -8.881861 -2.860265 1.079896
H    -11.328133 -2.804533 1.096434
H    -10.914698 3.644785 -1.910925
H    -9.125003 3.571563 -2.037009
H    -9.895410 4.149271 -0.532964
C    -10.797113 -1.931498 0.727886
C    -10.751823 0.274702 -0.145982
C    -11.508990 -0.827990 0.306500
H    -12.593071 -0.795141 0.323269
C    -4.648768 -0.606214 0.179951
C    -5.000352 -1.944351 0.027328
S    -6.096176 0.386248 0.319484
H    -6.840165 -3.136497 -0.102104
H    -4.255376 -2.724534 -0.094840
C    -6.389512 -2.159692 0.033470
C    -7.141350 -1.008050 0.201520
C    0.169958 -0.758332 0.040850
C    -1.002396 -0.004838 0.155469
N    -0.223410 -2.088964 -0.100694
C    -1.651212 -2.223757 -0.081241
C    -1.478052 1.349863 0.320525
O    -0.915491 2.437652 0.429657
O    -2.214554 -3.311069 -0.192208
C    -3.733865 2.397049 0.495566
C    0.602973 -3.272409 -0.255779
H    -0.088145 -4.113956 -0.334754
H    1.254762 -3.424133 0.610548
H    1.211257 -3.221982 -1.164520
H    -4.342175 2.345522 1.404213
H    -4.386857 2.547422 -0.370017
H    -3.043535 3.239242 0.574340
N    -2.906301 1.214260 0.340414
C    -2.126307 -0.869051 0.084987
C    -3.298553 -0.115827 0.199192
C    4.019613 0.139806 0.047806
C    3.261931 1.292273 0.197678
S    2.967645 -1.258137 -0.085845
H    1.127902 1.851422 0.314519
H    3.716940 2.268663 0.297520
C    1.873963 1.070072 0.206851
C    1.517909 -0.267537 0.063309
C    8.403230 -0.307884 -0.111959
C    7.772602 0.966883 0.039761
C    7.510198 -1.374252 -0.199371
N    6.075899 2.431247 0.232426
N    7.275666 2.995296 0.252979
N    8.327018 2.195194 0.149231
C    7.432094 4.425873 0.459628
H    7.899491 -2.381863 -0.313395
H    5.514154 -2.133308 -0.225322
H    6.567328 4.929223 0.027352
H    7.491022 4.646616 1.529859
H    8.351180 4.742886 -0.033132
C    6.109591 -1.228064 -0.147703
C    6.353569 1.116365 0.092322
C    5.463804 -0.000480 -0.003427
C    12.179335 -1.389893 -0.329472
C    12.153981 -0.030502 -0.176036
S    10.582530 -2.060220 -0.364818
H    10.604159 1.542948 0.039770
H    13.048226 0.581610 -0.129662
C    10.834841 0.493132 -0.083991
C    9.848778 -0.470463 -0.167341
H    13.038297 -2.040629 -0.424409
