71
DPPBTZ-torsion-5-6
C    -8.554371 0.534316 -0.042301
C    -9.546263 -0.498571 -0.021728
C    -9.063472 1.830830 -0.083151
N    -11.632858 -1.355715 -0.023475
N    -10.672916 -2.269464 0.005938
N    -9.414424 -1.843747 0.013324
C    -10.983406 -3.687005 0.098324
H    -8.372403 2.668956 -0.097707
H    -10.752886 3.168664 -0.138480
H    -11.980595 -3.839579 -0.313323
H    -10.959708 -4.008245 1.144101
H    -10.238233 -4.242386 -0.472009
C    -10.450877 2.125801 -0.106430
C    -10.939958 -0.193517 -0.045093
C    -11.410968 1.136608 -0.089617
H    -12.473137 1.355352 -0.107881
C    -4.598450 0.379614 -0.006302
C    -5.093089 -0.919478 0.041726
S    -5.935400 1.525923 -0.062936
H    -7.054466 -1.919369 0.066088
H    -4.434066 -1.781311 0.081438
C    -6.498047 -0.991998 0.033639
C    -7.127887 0.241183 -0.020233
C    0.175927 -0.288340 0.057301
C    -0.910540 0.590955 0.014016
N    -0.355007 -1.576761 0.104749
C    -1.789392 -1.558790 0.093081
C    -1.240344 1.997029 -0.044704
O    -0.565790 3.024119 -0.080267
O    -2.464055 -2.585750 0.128976
C    -3.371881 3.287097 -0.113545
C    0.342062 -2.849010 0.161076
H    -0.433964 -3.616608 0.186342
H    0.956690 -2.931119 1.063195
H    0.969733 -3.003090 -0.722448
H    -4.000143 3.441128 0.769572
H    -3.986018 3.369043 -1.016013
H    -2.595892 4.054746 -0.138418
N    -2.674784 2.014921 -0.056708
C    -2.119133 -0.152658 0.034411
C    -3.205581 0.726526 -0.009303
C    4.098145 0.197309 0.065996
C    3.467552 1.430964 0.013105
S    2.905472 -1.087852 0.108386
H    1.403857 2.219666 -0.032555
H    4.023788 2.358382 -0.020058
C    2.063180 1.358009 0.006139
C    1.568521 0.058509 0.053847
C    8.400361 -0.707785 0.148981
C    7.912098 0.627739 0.081981
C    7.416608 -1.688000 0.157960
N    6.386021 2.275301 -0.007742
N    7.643815 2.701384 -0.026464
N    8.602958 1.788910 0.028758
C    7.953701 4.122065 -0.041655
H    7.717607 -2.730684 0.197168
H    5.345953 -2.231601 0.161395
H    7.228649 4.628346 -0.679730
H    7.896647 4.528712 0.972626
H    8.963768 4.240028 -0.432567
C    6.034413 -1.391631 0.136297
C    6.518455 0.931876 0.060819
C    5.522282 -0.095892 0.088205
C    12.057418 -2.070351 -0.366737
C    12.095679 -1.200056 0.688602
S    10.467087 -2.176999 -1.046993
H    10.650390 0.098874 1.765811
H    12.995412 -0.989936 1.256962
C    10.829224 -0.607153 0.962657
C    9.835299 -1.013463 0.103869
H    12.870012 -2.642263 -0.794568
