71
DPPBTZ-torsion-5-32
C    -8.554841 0.532905 0.034866
C    -9.546202 -0.500219 0.002388
C    -9.064731 1.828779 0.085162
N    -11.632476 -1.357730 -0.025216
N    -10.672049 -2.270433 -0.068646
N    -9.413663 -1.844700 -0.051574
C    -10.980957 -3.691304 -0.063670
H    -8.374091 2.666874 0.114527
H    -10.754975 3.165550 0.140449
H    -11.983514 -3.818188 -0.470996
H    -10.943259 -4.079233 0.958827
H    -10.243320 -4.207965 -0.678449
C    -10.452387 2.123114 0.100729
C    -10.940148 -0.195817 0.018581
C    -11.411990 1.133888 0.066965
H    -12.474355 1.352170 0.077939
C    -4.598703 0.380544 0.009647
C    -5.092412 -0.919195 -0.029435
S    -5.936557 1.526417 0.052965
H    -7.053057 -1.920539 -0.051676
H    -4.432728 -1.780881 -0.060303
C    -6.497351 -0.992561 -0.024685
C    -7.128151 0.240551 0.018071
C    0.176468 -0.284613 -0.036211
C    -0.910903 0.594295 -0.002555
N    -0.353679 -1.573789 -0.075018
C    -1.787938 -1.556616 -0.067202
C    -1.241668 2.000472 0.044395
O    -0.567936 3.028374 0.073934
O    -2.461904 -2.584264 -0.096732
C    -3.374195 3.289674 0.097525
C    0.344336 -2.845998 -0.119844
H    -0.431118 -3.614300 -0.141044
H    0.970008 -2.992821 0.766326
H    0.961202 -2.934675 -1.019813
H    -3.990649 3.378342 0.997792
H    -4.000374 3.436474 -0.788303
H    -2.598714 4.057969 0.118329
N    -2.676199 2.017550 0.052350
C    -2.118898 -0.150261 -0.020344
C    -3.206067 0.728486 0.013606
C    4.098555 0.203713 -0.038710
C    3.466353 1.437441 0.003486
S    2.906659 -1.082775 -0.075083
H    1.402234 2.224655 0.038430
H    4.021500 2.365651 0.031037
C    2.062357 1.363280 0.007505
C    1.568486 0.062981 -0.031839
C    8.404944 -0.702782 -0.100375
C    7.913385 0.635500 -0.060163
C    7.416056 -1.681165 -0.098605
N    6.384573 2.282220 -0.012026
N    7.640567 2.712389 -0.016517
N    8.600768 1.799402 -0.039726
C    7.948121 4.130269 0.079864
H    7.711581 -2.725741 -0.130110
H    5.348171 -2.226049 -0.089670
H    7.190481 4.685785 -0.473514
H    7.942407 4.444486 1.128003
H    8.937200 4.290481 -0.348330
C    6.035744 -1.385048 -0.079221
C    6.519279 0.937863 -0.043770
C    5.521769 -0.088995 -0.054478
C    12.058535 -2.119340 0.224144
C    12.130542 -0.977595 -0.527583
S    10.437206 -2.440840 0.743675
H    10.713078 0.565750 -1.262021
H    13.054969 -0.598885 -0.950238
C    10.866460 -0.346047 -0.697641
C    9.833224 -1.003692 -0.065998
H    12.861794 -2.782033 0.517262
