71
DPPBTZ-torsion-1-12
C    -8.603934 -0.713425 -0.530560
C    -9.335779 0.164117 0.320533
C    -9.368706 -1.525574 -1.356248
N    -11.175189 1.123184 1.200550
N    -10.031778 1.575081 1.701952
N    -8.900398 1.056074 1.238643
C    -10.019497 2.552573 2.778542
H    -8.858039 -2.215728 -2.021427
H    -11.316891 -2.144065 -2.058467
H    -10.908746 3.175225 2.681863
H    -9.112748 3.150450 2.686729
H    -10.028213 2.043040 3.746929
C    -10.791049 -1.481679 -1.376765
C    -10.761040 0.205738 0.295763
C    -11.507754 -0.627101 -0.567246
H    -12.591944 -0.589647 -0.580688
C    -4.649028 -0.479302 -0.372973
C    -5.025894 -1.799286 -0.154681
S    -6.077195 0.518177 -0.633044
H    -6.899201 -2.956388 -0.026775
H    -4.296754 -2.580425 0.037423
C    -6.421578 -1.998110 -0.199257
C    -7.142506 -0.852270 -0.467834
C    0.162809 -0.690373 -0.107054
C    -0.994271 0.072836 -0.288675
N    -0.254167 -2.006123 0.094188
C    -1.683169 -2.121500 0.047771
C    -1.445039 1.422879 -0.537753
O    -0.864371 2.495953 -0.689041
O    -2.265854 -3.192889 0.203301
C    -3.681278 2.490274 -0.819475
C    0.549957 -3.191034 0.332700
H    -0.155792 -4.017089 0.440615
H    1.137953 -3.099840 1.251561
H    1.219000 -3.399077 -0.508414
H    -4.356101 2.687452 0.019599
H    -4.264082 2.405990 -1.742337
H    -2.977592 3.319453 -0.916071
N    -2.874868 1.305525 -0.587576
C    -2.133155 -0.770946 -0.200867
C    -3.289514 -0.009215 -0.385917
C    4.025366 0.150602 -0.072269
C    3.289229 1.304690 -0.297460
S    2.949205 -1.223483 0.107570
H    1.167141 1.887926 -0.490043
H    3.761429 2.268025 -0.436525
C    1.898398 1.102322 -0.326341
C    1.518684 -0.220849 -0.123353
C    8.397148 -0.351664 0.206723
C    7.790413 0.920378 -0.037239
C    7.485121 -1.395900 0.348172
N    6.122405 2.392823 -0.368768
N    7.332091 2.933568 -0.416508
N    8.367336 2.128678 -0.225095
C    7.510720 4.365473 -0.593951
H    7.855412 -2.399084 0.538782
H    5.476578 -2.120717 0.386843
H    6.688600 4.738293 -1.204810
H    7.505873 4.867924 0.378215
H    8.467397 4.530838 -1.089393
C    6.088317 -1.232210 0.258879
C    6.375287 1.087568 -0.127894
C    5.465812 -0.007564 0.019268
C    12.150693 -1.476306 0.557641
C    12.149826 -0.126576 0.333241
S    10.543173 -2.120413 0.594199
H    10.629603 1.455970 0.003457
H    13.054342 0.469096 0.273847
C    10.841199 0.410823 0.186600
C    9.838614 -0.532479 0.299625
H    12.997246 -2.133776 0.703823
