71
DPPBTZ-torsion-3-28
C    -8.416004 -0.255697 -0.791312
C    -9.428172 0.616779 -0.276967
C    -8.872764 -1.208431 -1.699344
N    -11.512281 1.448349 -0.046113
N    -10.597088 2.073655 0.680626
N    -9.343709 1.639922 0.602903
C    -10.960167 3.152636 1.585503
H    -8.163597 -1.909183 -2.130947
H    -10.491270 -2.095230 -2.813690
H    -11.885760 3.597863 1.222056
H    -10.152635 3.885347 1.592182
H    -11.107953 2.759773 2.596010
C    -10.229344 -1.320264 -2.099193
C    -10.790528 0.497761 -0.683942
C    -11.208482 -0.481957 -1.610357
H    -12.247188 -0.561504 -1.912304
C    -4.524143 -0.454389 -0.102220
C    -5.057940 0.567899 0.673930
S    -5.797841 -1.214247 -1.051683
H    -7.028758 1.482355 1.034842
H    -4.438752 1.167982 1.334570
C    -6.445692 0.735974 0.511866
C    -7.019623 -0.147506 -0.388336
C    0.147381 -0.268754 0.982649
C    -0.877509 -0.874056 0.290168
N    -0.405261 0.773865 1.720693
C    -1.824410 0.850265 1.538345
C    -1.141948 -1.937119 -0.663953
O    -0.436660 -2.765580 -1.214095
O    -2.527182 1.680601 2.113962
C    -3.209073 -2.781022 -1.783134
C    0.294661 1.653731 2.639268
H    -0.469675 2.228034 3.165711
H    0.960416 2.341826 2.107962
H    0.884441 1.074733 3.356527
H    -3.674785 -2.266347 -2.629874
H    -3.959764 -3.390788 -1.270047
H    -2.414388 -3.431175 -2.155577
N    -2.566489 -1.847990 -0.876242
C    -2.105293 -0.223103 0.605970
C    -3.135452 -0.823629 -0.120451
C    4.087754 -0.381622 0.620842
C    3.686726 -1.454058 1.392328
S    2.686242 0.551811 0.111650
H    1.790293 -2.301765 2.160059
H    4.392388 -2.161173 1.807561
C    2.281887 -1.529317 1.579057
C    1.586240 -0.529567 0.944129
C    8.158723 0.794053 -0.614210
C    7.911588 -0.356135 0.199116
C    7.007830 1.490313 -0.973330
N    6.697336 -1.852880 1.360464
N    8.002790 -2.082821 1.389807
N    8.784742 -1.245313 0.723616
C    8.546970 -3.253169 2.058581
H    7.097614 2.376638 -1.594816
H    4.884875 1.732413 -0.920369
H    7.908672 -3.487372 2.910597
H    8.569382 -4.103230 1.369714
H    9.559434 -3.017884 2.386528
C    5.707595 1.111664 -0.576742
C    6.595819 -0.739612 0.600412
C    5.434478 0.000562 0.215892
C    11.470983 2.377426 -2.031985
C    11.823865 1.258613 -1.328354
S    9.757567 2.632680 -2.010747
H    10.778236 -0.316608 -0.166027
H    12.848867 0.921120 -1.218573
C    10.707292 0.586385 -0.757834
C    9.497302 1.194251 -1.027450
H    12.111580 3.069154 -2.562478
