71
DPPBTZ-torsion-4-29
C    -8.545942 0.439532 0.135446
C    -9.505363 -0.576207 -0.179010
C    -9.094796 1.671873 0.484321
N    -11.564431 -1.451723 -0.466048
N    -10.576925 -2.306944 -0.691416
N    -9.332126 -1.865556 -0.547482
C    -10.841873 -3.661355 -1.149310
H    -8.429972 2.493795 0.734710
H    -10.824632 2.914615 0.816565
H    -11.844461 -3.935931 -0.822852
H    -10.095468 -4.326153 -0.713516
H    -10.781017 -3.706320 -2.240954
C    -10.490610 1.920742 0.532904
C    -10.907741 -0.317803 -0.128017
C    -11.419663 0.947137 0.233879
H    -12.488027 1.130702 0.269796
C    -4.587489 0.388373 0.192131
C    -5.041223 -0.870912 -0.184732
S    -5.959114 1.455996 0.479881
H    -6.970546 -1.879420 -0.514986
H    -4.355834 -1.682174 -0.409919
C    -6.443346 -0.975259 -0.240721
C    -7.111073 0.193098 0.089274
C    0.204326 -0.131656 0.122602
C    -0.907729 0.684241 0.343080
N    -0.283849 -1.381831 -0.251628
C    -1.719117 -1.401970 -0.282077
C    -1.281002 2.025158 0.730664
O    -0.638963 3.027570 1.037952
O    -2.359379 -2.406044 -0.586970
C    -3.451890 3.210166 1.040349
C    0.454832 -2.584374 -0.591370
H    -0.295044 -3.343079 -0.824007
H    1.066576 -2.931274 0.247705
H    1.092887 -2.430803 -1.467552
H    -4.091542 3.056068 1.915259
H    -4.061385 3.560062 0.201027
H    -2.700304 3.966312 1.275884
N    -2.715352 2.006540 0.699379
C    -2.093308 -0.060914 0.104601
C    -3.205583 0.755936 0.324402
C    4.105833 0.439498 0.321236
C    3.448464 1.598760 0.672563
S    2.962857 -0.826719 -0.046445
H    1.356086 2.302693 0.865424
H    3.976040 2.502627 0.955749
C    2.041727 1.494910 0.628140
C    1.589031 0.234968 0.254293
C    8.408073 -0.532707 0.333273
C    7.851117 0.439313 -0.556751
C    7.482468 -1.127674 1.186288
N    6.230747 1.697356 -1.492670
N    7.435236 1.897269 -2.008777
N    8.443690 1.189853 -1.513509
C    7.633031 2.804592 -3.127768
H    7.821654 -1.880088 1.892513
H    5.458122 -1.329126 1.894441
H    6.833075 3.543993 -3.105877
H    8.607106 3.282141 -3.017593
H    7.599779 2.249708 -4.070296
C    6.103094 -0.809024 1.192218
C    6.461121 0.759924 -0.546415
C    5.547696 0.148015 0.356137
C    12.084118 -1.851451 0.826297
C    12.114110 -0.930600 -0.184845
S    10.484837 -2.055056 1.459838
H    10.650161 0.371951 -1.227858
H    13.019119 -0.656552 -0.716192
C    10.835599 -0.372251 -0.464499
C    9.827201 -0.869467 0.335981
H    12.903569 -2.423896 1.239974
