71
DPPBTZ-torsion-4-20
C    -8.518757 0.530211 -0.060542
C    -9.464797 -0.539014 0.053775
C    -9.084034 1.794609 -0.214269
N    -11.512195 -1.481330 0.148656
N    -10.513364 -2.345134 0.265339
N    -9.274489 -1.867918 0.214958
C    -10.760556 -3.773900 0.373478
H    -8.430152 2.656879 -0.309985
H    -10.830214 3.048121 -0.376873
H    -11.758274 -3.911371 0.789182
H    -10.003691 -4.207472 1.027841
H    -10.702130 -4.240052 -0.614814
C    -10.483049 2.026255 -0.254004
C    -10.870545 -0.297658 0.012599
C    -11.399222 1.002235 -0.142049
H    -12.469960 1.172722 -0.170967
C    -4.559747 0.552166 -0.021474
C    -4.996949 -0.760504 0.120540
S    -5.945667 1.631771 -0.156217
H    -6.912627 -1.841061 0.221546
H    -4.300685 -1.587531 0.219809
C    -6.397446 -0.894925 0.121064
C    -7.080872 0.302258 -0.019788
C    0.240187 0.101360 0.073016
C    -0.884492 0.926933 -0.027080
N    -0.233719 -1.202663 0.212020
C    -1.667287 -1.248770 0.204494
C    -1.275797 2.309016 -0.183975
O    -0.647309 3.360200 -0.294671
O    -2.295914 -2.299566 0.314321
C    -3.461994 3.496191 -0.335721
C    0.519549 -2.435211 0.357770
H    -0.221422 -3.232517 0.443444
H    1.139706 -2.422701 1.259721
H    1.152590 -2.625385 -0.514797
H    -4.096526 3.683883 0.536359
H    -4.079200 3.487993 -1.239809
H    -2.720475 4.293504 -0.416526
N    -2.709599 2.263004 -0.192389
C    -2.059209 0.133997 0.049486
C    -3.183316 0.958912 -0.052773
C    4.132199 0.753147 0.034963
C    3.446334 1.951751 -0.110947
S    3.001056 -0.575745 0.157124
H    1.352779 2.648609 -0.207101
H    3.949191 2.903283 -0.240764
C    2.049126 1.822386 -0.101849
C    1.616710 0.506119 0.043294
C    8.514431 0.283673 0.112683
C    7.645059 -0.818150 -0.161341
C    7.848381 1.481811 0.368328
N    5.684598 -1.880456 -0.467720
N    6.746072 -2.661015 -0.615594
N    7.939215 -2.106940 -0.446823
C    6.604966 -4.084048 -0.877915
H    8.429889 2.369699 0.599619
H    6.032824 2.593176 0.593975
H    5.680648 -4.236237 -1.434904
H    7.466568 -4.411583 -1.459797
H    6.564335 -4.637548 0.065262
C    6.445130 1.617699 0.357289
C    6.225312 -0.678045 -0.176296
C    5.573659 0.564696 0.080404
C    12.432792 0.580890 0.300835
C    12.137272 -0.720734 -0.000138
S    11.000476 1.539964 0.471248
H    10.304041 -1.927576 -0.327770
H    12.892300 -1.485265 -0.148164
C    10.739380 -0.963981 -0.098028
C    9.964598 0.156540 0.129452
H    13.404691 1.037206 0.433017
