71
DPPBTZ-torsion-4-33
C    -8.552085 0.512629 0.072950
C    -9.536917 -0.515071 -0.085639
C    -9.070128 1.793259 0.255756
N    -11.617716 -1.375668 -0.221010
N    -10.651549 -2.275543 -0.339783
N    -9.395885 -1.846372 -0.275079
C    -10.951329 -3.673883 -0.602609
H    -8.384793 2.626955 0.380293
H    -10.768776 3.108087 0.436841
H    -11.953789 -3.878393 -0.227918
H    -10.211508 -4.288770 -0.089210
H    -10.909282 -3.870231 -1.678291
C    -10.459610 2.077420 0.288657
C    -10.932748 -0.220939 -0.051595
C    -11.412959 1.092834 0.139494
H    -12.476659 1.303338 0.164325
C    -4.595150 0.379891 0.090263
C    -5.080709 -0.906666 -0.118130
S    -5.940012 1.506105 0.256164
H    -7.035106 -1.905084 -0.294377
H    -4.415722 -1.755154 -0.246500
C    -6.485171 -0.985524 -0.143885
C    -7.123606 0.230178 0.042271
C    0.183947 -0.254489 0.031401
C    -0.908706 0.608477 0.160111
N    -0.337594 -1.530603 -0.176957
C    -1.772226 -1.520813 -0.187630
C    -1.248316 1.995931 0.379393
O    -0.580970 3.014321 0.550195
O    -2.439186 -2.539673 -0.355521
C    -3.388854 3.259534 0.562478
C    0.369092 -2.783917 -0.369722
H    -0.400963 -3.547715 -0.495049
H    0.985370 -3.035763 0.499316
H    0.996996 -2.758317 -1.266097
H    -4.018986 3.230897 1.457168
H    -4.002836 3.514996 -0.307073
H    -2.618252 4.022022 0.692354
N    -2.682811 2.006206 0.367072
C    -2.112136 -0.133046 0.031060
C    -3.204623 0.730001 0.158755
C    4.100123 0.248653 0.127499
C    3.463779 1.462878 0.326699
S    2.920620 -1.026951 -0.087900
H    1.393408 2.227848 0.451812
H    4.013353 2.383353 0.476741
C    2.059698 1.382325 0.310479
C    1.574412 0.094723 0.100135
C    8.408209 -0.670927 0.136560
C    7.904472 0.621860 -0.212796
C    7.421046 -1.593433 0.477678
N    6.349754 2.208945 -0.578813
N    7.594139 2.617981 -0.784736
N    8.567253 1.736972 -0.594791
C    7.875637 3.957195 -1.275962
H    7.714287 -2.600392 0.760412
H    5.358496 -2.088069 0.785654
H    7.071143 4.614259 -0.946494
H    8.832774 4.279712 -0.865513
H    7.925616 3.952959 -2.369104
C    6.041279 -1.297796 0.487204
C    6.509366 0.920890 -0.203769
C    5.523880 -0.046977 0.159810
C    12.059988 -2.123902 0.324695
C    12.160477 -0.822118 -0.084170
S    10.411579 -2.587749 0.585677
H    10.765717 0.852887 -0.501704
H    13.105448 -0.336107 -0.301701
C    10.898096 -0.175816 -0.193457
C    9.829768 -0.987628 0.133172
H    12.853197 -2.840825 0.489424
