71
DPPBTZ-torsion-5-8
C    -8.557604 0.546643 -0.046035
C    -9.552933 -0.483046 -0.034725
C    -9.062235 1.845129 -0.078406
N    -11.642376 -1.333116 -0.046355
N    -10.685594 -2.250270 -0.021859
N    -9.425679 -1.828872 -0.009185
C    -11.001025 -3.667413 0.059523
H    -8.368340 2.681014 -0.085694
H    -10.747057 3.189011 -0.127026
H    -11.998321 -3.813444 -0.354226
H    -10.979451 -3.996567 1.102874
H    -10.257207 -4.221046 -0.514271
C    -10.448592 2.144943 -0.101994
C    -10.945541 -0.173131 -0.058345
C    -11.411987 1.158854 -0.094042
H    -12.473385 1.381290 -0.112587
C    -4.602364 0.378266 -0.003900
C    -5.101453 -0.919485 0.033479
S    -5.935304 1.529507 -0.054382
H    -7.066257 -1.912849 0.046729
H    -4.445423 -1.783831 0.067949
C    -6.506611 -0.987180 0.022251
C    -7.132120 0.248551 -0.023532
C    0.169293 -0.306800 0.063460
C    -0.913836 0.576462 0.024771
N    -0.365994 -1.593683 0.100211
C    -1.800364 -1.570686 0.086042
C    -1.238740 1.984214 -0.023995
O    -0.560556 3.009042 -0.050614
O    -2.478590 -2.595559 0.112985
C    -3.365719 3.282162 -0.087251
C    0.326548 -2.868768 0.148168
H    -0.452206 -3.633807 0.165912
H    0.938972 -2.959989 1.050913
H    0.955486 -3.018234 -0.735241
H    -3.994996 3.431858 0.795880
H    -3.977932 3.372759 -0.990185
H    -2.587110 4.047338 -0.105133
N    -2.673075 2.007177 -0.038485
C    -2.125070 -0.163051 0.037334
C    -3.208327 0.720331 -0.001758
C    4.092954 0.165041 0.083419
C    3.467430 1.401107 0.038327
S    2.895866 -1.115981 0.113859
H    1.406436 2.197729 -0.005554
H    4.027244 2.326646 0.013241
C    2.062513 1.333412 0.028052
C    1.563440 0.035458 0.065213
C    8.389266 -0.754288 0.160797
C    7.908509 0.582162 0.104936
C    7.406098 -1.731442 0.171138
N    6.387832 2.236040 0.025049
N    7.647506 2.657028 0.011466
N    8.603737 1.741386 0.061389
C    7.962820 4.076690 0.009073
H    7.707166 -2.774404 0.202806
H    5.331362 -2.268908 0.171445
H    7.236269 4.591946 -0.619994
H    7.912691 4.472814 1.027849
H    8.971462 4.194745 -0.385453
C    6.022951 -1.431419 0.150763
C    6.515646 0.891500 0.082967
C    5.516991 -0.133669 0.106032
C    12.123873 -1.855790 -0.487419
C    12.039396 -1.465682 0.820220
S    10.601414 -1.690274 -1.300461
H    10.459834 -0.682657 2.175358
H    12.878276 -1.492323 1.507486
C    10.730818 -1.025217 1.182528
C    9.831189 -1.072842 0.148140
H    12.988259 -2.224891 -1.023306
