71
DPPBTZ-torsion-3-16
C    -8.142313 -1.273818 -0.129698
C    -9.351477 -0.512805 -0.030632
C    -8.328167 -2.642762 -0.311603
N    -11.582151 -0.178581 0.002301
N    -10.867290 0.928524 0.145660
N    -9.543628 0.814491 0.141181
C    -11.506244 2.215135 0.370857
H    -7.457468 -3.287383 -0.392698
H    -9.650587 -4.329716 -0.540594
H    -12.511592 2.168068 -0.046489
H    -10.915479 2.986352 -0.124367
H    -11.558392 2.424760 1.443581
C    -9.605496 -3.253920 -0.397704
C    -10.632518 -1.135156 -0.117966
C    -10.773400 -2.527234 -0.305893
H    -11.752990 -2.988194 -0.371556
C    -4.337340 -0.191939 0.019151
C    -5.126346 0.941329 0.184193
S    -5.362654 -1.609827 -0.185452
H    -7.269471 1.440640 0.259864
H    -4.690663 1.926149 0.323176
C    -6.508300 0.679833 0.148310
C    -6.826359 -0.655166 -0.044217
C    0.136181 1.592946 0.115861
C    -0.706618 0.484955 0.055400
N    -0.688440 2.715377 0.242852
C    -2.074067 2.352360 0.262668
C    -0.688358 -0.954810 -0.095445
O    0.212836 -1.781567 -0.167217
O    -2.973439 3.181186 0.392037
C    -2.451880 -2.712133 -0.243124
C    -0.310240 4.095773 0.481229
H    -1.208076 4.605835 0.835270
H    0.027888 4.592266 -0.435881
H    0.476284 4.158261 1.238364
H    -3.024714 -2.902398 -1.156463
H    -3.027729 -3.049381 0.624683
H    -1.513594 -3.268994 -0.288633
N    -2.080407 -1.313858 -0.126754
C    -2.058561 0.912775 0.127362
C    -2.901610 -0.196140 0.009096
C    4.026109 1.069285 -0.054903
C    3.764680 2.404143 -0.328189
S    2.535436 0.200996 0.244026
H    2.029030 3.721733 -0.505122
H    4.548938 3.113512 -0.556388
C    2.396905 2.729036 -0.286251
C    1.569139 1.654593 0.024516
C    7.909235 -1.016515 0.081812
C    7.811220 0.394932 -0.128214
C    6.679246 -1.652708 0.236233
N    6.799448 2.387291 -0.390680
N    8.122385 2.443088 -0.467971
N    8.790008 1.308251 -0.317598
C    8.815168 3.710359 -0.631673
H    6.655603 -2.726231 0.399858
H    4.545254 -1.585617 0.316339
H    8.188337 4.367765 -1.234386
H    8.997646 4.168497 0.345344
H    9.764477 3.516765 -1.130892
C    5.439947 -0.982639 0.190174
C    6.556599 1.075360 -0.174575
C    5.310858 0.390541 -0.012813
C    10.987015 -3.456818 0.305532
C    11.480867 -2.197734 0.098232
S    9.256668 -3.461416 0.382410
H    10.647415 -0.158162 -0.165608
H    12.540027 -1.977565 0.019097
C    10.461124 -1.211344 -0.002121
C    9.183489 -1.719400 0.129117
H    11.533073 -4.383905 0.417916
