71
DPPBTZ-torsion-4-25
C    -8.520443 0.507966 -0.163672
C    -9.481958 -0.520461 0.098885
C    -9.066329 1.736848 -0.528974
N    -11.542625 -1.416196 0.298839
N    -10.557358 -2.259742 0.572826
N    -9.311757 -1.808411 0.473606
C    -10.824825 -3.650534 0.902093
H    -8.399723 2.566409 -0.747380
H    -10.792900 2.964879 -0.926472
H    -11.832157 -3.710385 1.312998
H    -10.086513 -3.981188 1.633238
H    -10.753037 -4.269033 0.002246
C    -10.461270 1.972476 -0.634966
C    -10.883435 -0.275478 -0.010205
C    -11.392367 0.988101 -0.380992
H    -12.460082 1.161885 -0.459541
C    -4.563319 0.500559 -0.037406
C    -5.019122 -0.771286 0.291649
S    -5.932642 1.559470 -0.365404
H    -6.949689 -1.807183 0.511572
H    -4.335334 -1.579778 0.531222
C    -6.421046 -0.891835 0.280598
C    -7.086479 0.276018 -0.055693
C    0.225741 0.032661 0.249569
C    -0.884242 0.839824 -0.009665
N    -0.264278 -1.229878 0.576276
C    -1.698936 -1.267178 0.536228
C    -1.255040 2.184172 -0.387593
O    -0.611413 3.199521 -0.645185
O    -2.340736 -2.284622 0.789291
C    -3.422951 3.351123 -0.776256
C    0.472285 -2.432354 0.921580
H    -0.278274 -3.206199 1.094416
H    1.061642 -2.295317 1.833908
H    1.131970 -2.747198 0.106721
H    -4.074951 3.678007 0.040087
H    -4.019300 3.207159 -1.682908
H    -2.670176 4.119862 -0.961950
N    -2.688932 2.149183 -0.424075
C    -2.070740 0.076860 0.157615
C    -3.181149 0.885793 -0.097637
C    4.122970 0.653484 0.259074
C    3.470080 1.806752 -0.121595
S    2.979502 -0.629634 0.556189
H    1.381232 2.486537 -0.418424
H    4.002117 2.715117 -0.382303
C    2.063983 1.685828 -0.151013
C    1.610959 0.418026 0.192516
C    8.501333 0.143915 0.371703
C    7.682350 -0.577107 -0.554099
C    7.796095 0.981490 1.231058
N    5.768779 -1.218470 -1.558785
N    6.858898 -1.771747 -2.071421
N    8.026955 -1.447142 -1.530843
C    6.772762 -2.751333 -3.142552
H    8.341641 1.565207 1.966994
H    5.924223 1.800333 1.917383
H    5.853706 -2.563150 -3.696743
H    7.645115 -2.636538 -3.786498
H    6.754075 -3.762667 -2.725011
C    6.387114 1.121111 1.207567
C    6.262804 -0.435211 -0.574413
C    5.574561 0.423117 0.327407
C    12.394839 0.208436 0.948512
C    12.149500 -0.665222 -0.075077
S    10.932276 0.910263 1.555848
H    10.367906 -1.419908 -1.163122
H    12.929895 -1.211305 -0.593973
C    10.765738 -0.781039 -0.385642
C    9.953248 0.007168 0.403872
H    13.345577 0.484371 1.384725
