71
DPPBTZ-torsion-1-19
C    -8.600611 -0.965534 0.084204
C    -9.311207 0.264655 -0.061749
C    -9.410205 -2.087401 0.258869
N    -11.115114 1.608390 -0.205445
N    -9.956158 2.243785 -0.318017
N    -8.844972 1.519985 -0.239878
C    -9.899671 3.690534 -0.451791
H    -8.944191 -3.056871 0.400122
H    -11.375928 -2.955318 0.416867
H    -10.837245 4.023696 -0.895794
H    -9.054265 3.945337 -1.091495
H    -9.769338 4.152827 0.531438
C    -10.827355 -2.028377 0.276043
C    -10.736009 0.319561 -0.039828
C    -11.517977 -0.843285 0.127880
H    -12.601400 -0.795328 0.143405
C    -4.652115 -0.649247 0.053531
C    -4.993803 -1.997948 -0.004557
S    -6.105637 0.342029 0.096880
H    -6.811327 -3.213032 -0.064875
H    -4.243637 -2.781424 -0.048507
C    -6.379363 -2.220646 -0.007447
C    -7.145750 -1.064781 0.051903
C    0.168728 -0.783110 0.010438
C    -1.009297 -0.030489 0.050846
N    -0.215818 -2.122700 -0.042575
C    -1.643063 -2.264268 -0.037881
C    -1.494106 1.329900 0.110659
O    -0.938087 2.425756 0.152024
O    -2.199058 -3.360260 -0.079830
C    -3.756759 2.374164 0.171996
C    0.618731 -3.309258 -0.098186
H    -0.066938 -4.158389 -0.128384
H    1.255985 -3.394659 0.787812
H    1.242588 -3.320419 -0.997654
H    -4.381722 2.382869 1.070649
H    -4.394491 2.459610 -0.713548
H    -3.071527 3.223584 0.203696
N    -2.921443 1.187971 0.115186
C    -2.127468 -0.903956 0.022707
C    -3.305664 -0.151259 0.062412
C    4.013300 0.136279 0.018898
C    3.247600 1.291941 0.073296
S    2.970425 -1.273915 -0.032512
H    1.109183 1.845203 0.113619
H    3.696221 2.275637 0.110894
C    1.860784 1.062712 0.074717
C    1.513579 -0.283878 0.020918
C    8.401097 -0.295310 -0.034754
C    7.761859 0.983192 0.015856
C    7.514805 -1.370525 -0.061529
N    6.055102 2.447313 0.075882
N    7.251628 3.018588 0.076685
N    8.308433 2.219466 0.047491
C    7.397678 4.461091 0.184166
H    7.910813 -2.381328 -0.097508
H    5.523171 -2.141469 -0.067443
H    6.537211 4.927374 -0.295635
H    7.438880 4.757121 1.236910
H    8.322709 4.748209 -0.315756
C    6.112847 -1.229461 -0.043937
C    6.341434 1.127499 0.033811
C    5.458769 0.001375 0.002238
C    12.185439 -1.367526 -0.112003
C    12.151042 -0.000857 -0.055909
S    10.592666 -2.048153 -0.126167
H    10.590347 1.574720 0.021840
H    13.041458 0.618301 -0.038252
C    10.828058 0.520154 -0.023212
C    9.848131 -0.452762 -0.054316
H    13.048966 -2.018243 -0.146203
