71
DPPBTZ-torsion-5-22
C    -8.564868 0.581413 -0.004215
C    -9.569211 -0.439512 0.008999
C    -9.058360 1.884503 -0.020293
N    -11.666125 -1.271104 0.012545
N    -10.717261 -2.196807 0.019104
N    -9.453615 -1.786581 0.021868
C    -11.044338 -3.611726 0.092202
H    -8.357206 2.714300 -0.028099
H    -10.731606 3.243477 -0.039641
H    -12.046686 -3.745828 -0.313322
H    -11.015953 -3.949456 1.132652
H    -10.310758 -4.167145 -0.492928
C    -10.442186 2.196637 -0.026560
C    -10.959213 -0.117213 0.002861
C    -11.414210 1.219078 -0.016644
H    -12.473724 1.450995 -0.021990
C    -4.610927 0.378399 -0.004281
C    -5.120978 -0.915287 0.024814
S    -5.934251 1.541532 -0.029141
H    -7.094132 -1.891769 0.048068
H    -4.472174 -1.785532 0.043652
C    -6.526748 -0.970725 0.027332
C    -7.141969 0.270685 0.000670
C    0.155625 -0.347497 0.006848
C    -0.920649 0.545375 -0.011164
N    -0.390643 -1.630179 0.035376
C    -1.824658 -1.594843 0.036306
C    -1.233848 1.956031 -0.041915
O    -0.547231 2.975536 -0.064657
O    -2.511382 -2.614185 0.059343
C    -3.350049 3.272525 -0.069129
C    0.291400 -2.911403 0.063763
H    -0.493625 -3.669986 0.082816
H    0.912887 -3.016277 0.958797
H    0.909451 -3.057827 -0.827833
H    -3.968983 3.417816 0.822025
H    -3.970689 3.378473 -0.964627
H    -2.564982 4.031100 -0.086586
N    -2.668029 1.991262 -0.041588
C    -2.137890 -0.184017 0.006015
C    -3.214022 0.708665 -0.012799
C    4.083606 0.091117 -0.010127
C    3.466930 1.333139 -0.033252
S    2.875646 -1.180558 0.017421
H    1.412793 2.146798 -0.044824
H    4.033793 2.254453 -0.052912
C    2.062079 1.276815 -0.028947
C    1.551908 -0.017486 -0.002270
C    8.378600 -0.868766 0.002250
C    7.903691 0.473973 -0.026219
C    7.377496 -1.834835 0.027687
N    6.395771 2.140143 -0.063433
N    7.657225 2.553630 -0.084678
N    8.605078 1.628627 -0.061620
C    7.984308 3.970356 -0.063866
H    7.665010 -2.880843 0.071821
H    5.302683 -2.354389 0.045763
H    7.246960 4.504213 -0.664099
H    7.962008 4.344595 0.964136
H    8.984109 4.089816 -0.480038
C    6.000780 -1.522386 0.019114
C    6.513236 0.794238 -0.026806
C    5.503115 -0.219740 -0.007494
C    12.280024 -1.387492 0.148125
C    11.757125 -2.380138 -0.636870
S    11.053324 -0.315316 0.733614
H    9.746408 -2.964106 -1.367701
H    12.358696 -3.143799 -1.117844
C    10.343531 -2.288580 -0.764727
C    9.791675 -1.234379 -0.066935
H    13.316298 -1.214899 0.407056
