71
DPPBTZ-torsion-1-1
C    -8.555293 0.523853 -0.100579
C    -9.543439 -0.502701 0.039774
C    -9.067136 1.811761 -0.244005
N    -11.626282 -1.354699 0.191999
N    -10.662893 -2.260768 0.285206
N    -9.406161 -1.838086 0.200743
C    -10.968988 -3.677241 0.404453
H    -8.377822 2.641954 -0.369864
H    -10.760872 3.140121 -0.365142
H    -11.954196 -3.771050 0.860307
H    -10.205970 -4.143999 1.027987
H    -10.971643 -4.144688 -0.584977
C    -10.455435 2.104525 -0.246476
C    -10.937765 -0.200325 0.034724
C    -11.412306 1.121734 -0.108058
H    -12.474891 1.339290 -0.109383
C    -4.599672 0.377337 -0.062875
C    -5.090475 -0.922981 -0.119468
S    -5.940211 1.520047 -0.017818
H    -7.048983 -1.927747 -0.167253
H    -4.428759 -1.783003 -0.153261
C    -6.495330 -0.998830 -0.129866
C    -7.128199 0.232820 -0.084035
C    0.177107 -0.279345 -0.052012
C    -0.912319 0.597540 -0.025828
N    -0.350334 -1.569054 -0.108010
C    -1.784550 -1.554349 -0.119345
C    -1.246264 2.002647 0.028099
O    -0.574819 3.031536 0.074231
O    -2.456304 -2.582769 -0.166825
C    -3.381723 3.287566 0.063081
C    0.350546 -2.839587 -0.154291
H    -0.423130 -3.609015 -0.192625
H    0.964387 -2.992982 0.739025
H    0.979750 -2.919416 -1.046512
H    -4.009295 3.369151 0.956315
H    -3.997349 3.439059 -0.829343
H    -2.608042 4.057136 0.098540
N    -2.680773 2.017112 0.017839
C    -2.118566 -0.148943 -0.065369
C    -3.207761 0.727484 -0.038174
C    4.098246 0.216011 0.002639
C    3.462367 1.448465 0.044282
S    2.908933 -1.072511 -0.058964
H    1.396779 2.231385 0.056256
H    4.014910 2.377635 0.085167
C    2.059026 1.371508 0.028550
C    1.567973 0.070425 -0.026354
C    8.413179 -0.690598 0.008017
C    7.916344 0.650149 0.044022
C    7.415534 -1.663236 -0.024861
N    6.378527 2.291596 0.074673
N    7.630039 2.729307 0.088167
N    8.593807 1.819811 0.076591
C    7.930860 4.148066 0.190466
H    7.699625 -2.711307 -0.050513
H    5.352057 -2.212944 -0.052445
H    7.132239 4.702110 -0.302744
H    7.990969 4.444405 1.242201
H    8.887747 4.329739 -0.298811
C    6.037192 -1.370365 -0.026144
C    6.519988 0.948251 0.042806
C    5.520536 -0.075393 0.005337
C    12.058999 -2.168340 -0.015996
C    12.172803 -0.805727 0.033970
S    10.401990 -2.671863 -0.047762
H    10.791907 0.930570 0.085012
H    13.125002 -0.286972 0.060462
C    10.914060 -0.143822 0.047485
C    9.834575 -1.004626 0.007861
H    12.846988 -2.909251 -0.036362
