71
DPPBTZ-torsion-4-4
C    -8.550758 0.496076 -0.100980
C    -9.530690 -0.523898 0.123920
C    -9.074801 1.761199 -0.359034
N    -11.607175 -1.379469 0.335784
N    -10.636733 -2.264858 0.513758
N    -9.383311 -1.839072 0.400953
C    -10.931006 -3.668413 0.754052
H    -8.393479 2.587188 -0.542839
H    -10.779495 3.057319 -0.606194
H    -11.924133 -3.731967 1.197685
H    -10.176296 -4.069073 1.431454
H    -10.909099 -4.222581 -0.189258
C    -10.465498 2.038717 -0.397218
C    -10.927779 -0.236626 0.083564
C    -11.414102 1.062482 -0.178959
H    -12.478684 1.268186 -0.206124
C    -4.593366 0.378802 -0.123112
C    -5.073020 -0.900552 0.136560
S    -5.943238 1.492489 -0.327975
H    -7.022837 -1.899021 0.357986
H    -4.404217 -1.740830 0.295475
C    -6.477111 -0.983938 0.169649
C    -7.121013 0.220917 -0.062308
C    0.188255 -0.233596 -0.054424
C    -0.907982 0.619269 -0.212852
N    -0.327085 -1.502877 0.203828
C    -1.761947 -1.498628 0.218439
C    -1.253838 1.995870 -0.484110
O    -0.591136 3.009527 -0.696138
O    -2.423922 -2.513190 0.427093
C    -3.400049 3.243204 -0.708005
C    0.385589 -2.744928 0.441837
H    -0.380739 -3.506934 0.597289
H    1.015221 -2.683154 1.335244
H    1.001240 -3.026463 -0.418527
H    -4.012849 3.528607 0.153018
H    -4.032338 3.178592 -1.599304
H    -2.632914 4.003369 -0.868451
N    -2.688356 2.000933 -0.467673
C    -2.108213 -0.121725 -0.052053
C    -3.204355 0.731505 -0.209202
C    4.101083 0.282369 -0.170019
C    3.461600 1.483751 -0.420344
S    2.929262 -0.989532 0.088820
H    1.386990 2.235076 -0.574510
H    4.007524 2.399707 -0.610055
C    2.057072 1.398722 -0.400236
C    1.577833 0.118007 -0.140446
C    8.404749 -0.653366 -0.179785
C    7.896484 0.598228 0.292169
C    7.425436 -1.527999 -0.645914
N    6.331684 2.138282 0.796567
N    7.569076 2.511261 1.092973
N    8.548543 1.658399 0.821309
C    7.849010 3.833154 1.629979
H    7.724466 -2.498953 -1.030314
H    5.366000 -1.975370 -1.054951
H    6.959467 4.177823 2.156517
H    8.697318 3.756224 2.310586
H    8.090813 4.524987 0.817290
C    6.045652 -1.226862 -0.658133
C    6.502895 0.902121 0.278867
C    5.527006 -0.014576 -0.214027
C    12.056757 -2.100034 -0.415953
C    12.150369 -0.842962 0.115771
S    10.413961 -2.529895 -0.758190
H    10.749534 0.791614 0.655954
H    13.090925 -0.383771 0.400363
C    10.887059 -0.204065 0.255279
C    9.825311 -0.976622 -0.171767
H    12.851988 -2.802084 -0.628163
