71
DPPBTZ-torsion-3-4
C    -8.477942 0.453845 -0.524190
C    -9.475656 -0.553892 -0.324185
C    -8.961673 1.663475 -1.018533
N    -11.555474 -1.427323 -0.326865
N    -10.620167 -2.259309 0.109227
N    -9.366607 -1.820108 0.137233
C    -10.941130 -3.628782 0.478015
H    -8.264242 2.476691 -1.198849
H    -10.613674 2.876132 -1.687476
H    -11.992278 -3.661893 0.762764
H    -10.302903 -3.921281 1.312367
H    -10.764540 -4.296297 -0.370873
C    -10.330874 1.899709 -1.304860
C    -10.850854 -0.308477 -0.614967
C    -11.296871 0.935182 -1.112337
H    -12.345300 1.109477 -1.328697
C    -4.565400 0.431914 0.074421
C    -5.073470 -0.813951 0.426179
S    -5.870563 1.475075 -0.482942
H    -7.030224 -1.822390 0.477798
H    -4.432803 -1.610550 0.792483
C    -6.465282 -0.927095 0.254389
C    -7.069879 0.220978 -0.232474
C    0.165845 -0.110150 0.757736
C    -0.905652 0.712773 0.435164
N    -0.360933 -1.368077 1.045826
C    -1.792058 -1.373878 0.939763
C    -1.209876 2.063039 0.014825
O    -0.525559 3.065398 -0.149777
O    -2.470900 -2.367884 1.189401
C    -3.319493 3.263774 -0.564244
C    0.337405 -2.538744 1.549115
H    -0.429670 -3.214563 1.932352
H    1.026904 -2.264863 2.352387
H    0.893927 -3.054839 0.759494
H    -4.048716 3.583142 0.187220
H    -3.820535 3.146770 -1.530656
H    -2.542611 4.025870 -0.656162
N    -2.637838 2.046620 -0.163769
C    -2.115754 -0.021911 0.533551
C    -3.179616 0.799516 0.148544
C    4.083109 0.261668 0.402506
C    3.535183 1.466761 0.811891
S    2.815038 -0.937702 0.196144
H    1.532341 2.292056 1.242825
H    4.145240 2.339917 1.000697
C    2.133519 1.437247 0.956764
C    1.565529 0.212808 0.643876
C    8.300408 -0.748727 -0.399813
C    7.894663 0.561481 0.005689
C    7.250131 -1.657627 -0.509563
N    6.475709 2.195919 0.619093
N    7.742520 2.581963 0.554874
N    8.640005 1.671878 0.204692
C    8.139214 3.929943 0.927922
H    7.464140 -2.679426 -0.809507
H    5.170410 -2.125179 -0.370349
H    7.319938 4.606237 0.683994
H    8.349780 3.976494 2.000839
H    9.035825 4.189194 0.365013
C    5.903064 -1.331914 -0.251512
C    6.530461 0.892476 0.266851
C    5.474737 -0.065000 0.141151
C    11.816505 -2.286407 -1.267459
C    12.017895 -0.976035 -0.929431
S    10.141946 -2.720565 -1.178023
H    10.762775 0.741135 -0.296467
H    12.994975 -0.505105 -0.921520
C    10.813810 -0.298796 -0.590733
C    9.688475 -1.095456 -0.670258
H    12.548815 -3.025190 -1.564450
