71
DPPBTZ-torsion-2-17
C    -8.058800 -1.047014 -0.050590
C    -9.422171 -0.617975 0.037496
C    -7.887231 -2.421424 -0.200785
N    -11.664503 -0.864873 0.071813
N    -11.257210 0.391267 0.188369
N    -9.947974 0.619861 0.181160
C    -12.205073 1.475004 0.388832
H    -6.880298 -2.823754 -0.266719
H    -8.734146 -4.394781 -0.387205
H    -13.166815 1.157656 -0.012984
H    -11.838246 2.358367 -0.135015
H    -12.302952 1.695496 1.456254
C    -8.966269 -3.340330 -0.269084
C    -10.501483 -1.548942 -0.031380
C    -10.281198 -2.934611 -0.188887
H    -11.110377 -3.631935 -0.240576
C    -4.655814 0.968408 0.024433
C    -5.706645 1.858222 0.228843
S    -5.290612 -0.664495 -0.167574
H    -7.904212 1.796412 0.367583
H    -5.572696 2.916273 0.398877
C    -6.978167 1.256018 0.222242
C    -6.940906 -0.113387 0.013885
C    0.091431 0.023534 -0.041874
C    -0.950985 0.955940 -0.059017
N    -0.499525 -1.238235 -0.018579
C    -1.933902 -1.150781 -0.022778
C    -1.212127 2.376835 -0.068390
O    -0.487663 3.370298 -0.103149
O    -2.659120 -2.138843 -0.023677
C    -3.270081 3.770437 -0.124839
C    0.133947 -2.544189 -0.018859
H    -0.679688 -3.272504 -0.022266
H    0.745410 -2.695525 0.876513
H    0.751303 -2.692015 -0.910723
H    -3.774053 4.040384 0.810074
H    -3.986191 3.812241 -0.951064
H    -2.463859 4.484338 -0.303335
N    -2.642415 2.465506 -0.041503
C    -2.194873 0.272858 -0.041295
C    -3.237717 1.199507 -0.022390
C    4.032444 0.322086 -0.023434
C    3.460172 1.585064 -0.073116
S    2.779471 -0.905412 0.009399
H    1.436327 2.470279 -0.119636
H    4.059304 2.485391 -0.100337
C    2.054648 1.578419 -0.084715
C    1.498542 0.303426 -0.044349
C    8.296199 -0.798969 0.049258
C    7.867790 0.564582 -0.004810
C    7.250672 -1.720023 0.079270
N    6.414949 2.280036 -0.085937
N    7.686992 2.653869 -0.099201
N    8.603546 1.698101 -0.048604
C    8.059221 4.059296 -0.090567
H    7.481388 -2.780502 0.123477
H    5.162008 -2.165397 0.084076
H    7.291144 4.618671 -0.624619
H    8.131523 4.422304 0.939269
H    9.025374 4.158868 -0.585164
C    5.888867 -1.358591 0.056161
C    6.488277 0.932102 -0.028311
C    5.438391 -0.039983 0.000744
C    11.862666 -2.457119 0.131124
C    12.045237 -1.101731 0.088728
S    10.182337 -2.877344 0.130990
H    10.753877 0.701521 0.019864
H    13.022461 -0.631128 0.081446
C    10.821552 -0.377740 0.055397
C    9.699931 -1.183674 0.072542
H    12.612213 -3.236544 0.162232
