71
DPPBTZ-torsion-4-7
C    -8.545864 0.436759 -0.139907
C    -9.504653 -0.575272 0.188133
C    -9.095456 1.664053 -0.505005
N    -11.562895 -1.443526 0.501904
N    -10.574685 -2.292381 0.747359
N    -9.330467 -1.857203 0.581199
C    -10.840876 -3.673218 1.117123
H    -8.431223 2.481367 -0.771530
H    -10.825927 2.903092 -0.847598
H    -11.827453 -3.713143 1.577805
H    -10.071217 -3.998198 1.817831
H    -10.820049 -4.309970 0.227441
C    -10.491315 1.913170 -0.551105
C    -10.907085 -0.316791 0.139052
C    -11.419670 0.944679 -0.233867
H    -12.488039 1.128822 -0.266514
C    -4.587399 0.387314 -0.195597
C    -5.040742 -0.873248 0.177430
S    -5.959348 1.455554 -0.479557
H    -6.969736 -1.883241 0.505064
H    -4.355115 -1.685051 0.399931
C    -6.442834 -0.978189 0.233162
C    -7.110917 0.190851 -0.093635
C    0.204602 -0.131093 -0.126676
C    -0.907702 0.685026 -0.345010
N    -0.283155 -1.382540 0.243788
C    -1.718426 -1.403325 0.273862
C    -1.281429 2.026937 -0.728679
O    -0.639708 3.030533 -1.032785
O    -2.358361 -2.408550 0.575620
C    -3.452674 3.212066 -1.035138
C    0.455926 -2.585699 0.580492
H    -0.293701 -3.345371 0.810762
H    1.093603 -2.434256 1.457321
H    1.068121 -2.930023 -0.259310
H    -4.062338 3.559239 -0.194810
H    -4.092219 3.060378 -1.910548
H    -2.701318 3.969162 -1.268341
N    -2.715759 2.007669 -0.697751
C    -2.093063 -0.061291 -0.108965
C    -3.205596 0.755782 -0.326546
C    4.105923 0.442151 -0.322827
C    3.448177 1.602280 -0.670503
S    2.963382 -0.825683 0.040551
H    1.355540 2.306052 -0.861406
H    3.975457 2.507251 -0.950721
C    2.041455 1.497774 -0.626616
C    1.589231 0.236462 -0.256902
C    8.407696 -0.531913 -0.332602
C    7.850214 0.438148 0.559236
C    7.483862 -1.119753 -1.192446
N    6.227489 1.686720 1.503722
N    7.428742 1.873136 2.032362
N    8.439781 1.176620 1.527211
C    7.644110 2.855021 3.083113
H    7.824428 -1.866507 -1.903991
H    5.460992 -1.315159 -1.906532
H    6.696845 3.005743 3.599815
H    8.402512 2.471093 3.766150
H    7.985114 3.799716 2.648759
C    6.104654 -0.800341 -1.199223
C    6.460524 0.760051 0.547548
C    5.547940 0.151248 -0.357856
C    12.080941 -1.862819 -0.813819
C    12.113499 -0.930541 0.186714
S    10.480559 -2.071419 -1.442951
H    10.652684 0.385798 1.216720
H    13.019549 -0.651797 0.713828
C    10.836160 -0.367062 0.461420
C    9.826155 -0.871564 -0.332440
H    12.898979 -2.441491 -1.221586
