71
DPPBTZ-torsion-2-16
C    -8.077495 -1.028652 -0.095600
C    -9.429814 -0.595057 0.086888
C    -7.931828 -2.383858 -0.383179
N    -11.672638 -0.818562 0.183892
N    -11.242271 0.415602 0.405585
N    -9.930963 0.628960 0.369704
C    -12.165475 1.485337 0.746897
H    -6.933767 -2.789763 -0.522026
H    -8.814489 -4.320328 -0.725996
H    -13.145702 1.221116 0.351333
H    -11.803538 2.411828 0.299804
H    -12.222152 1.599833 1.833765
C    -9.026354 -3.279560 -0.498794
C    -10.524781 -1.502619 -0.029923
C    -10.331166 -2.868774 -0.329397
H    -11.171958 -3.548495 -0.416099
C    -4.650734 0.939238 0.009037
C    -5.669372 1.802385 0.398381
S    -5.316469 -0.650699 -0.340867
H    -7.854976 1.735401 0.675020
H    -5.500923 2.825996 0.702555
C    -6.948124 1.213936 0.398624
C    -6.944585 -0.117446 0.014080
C    0.096052 0.000885 -0.088393
C    -0.948316 0.930132 -0.124305
N    -0.490650 -1.262860 -0.048037
C    -1.925890 -1.180868 -0.061136
C    -1.214966 2.350992 -0.143681
O    -0.495779 3.347288 -0.199228
O    -2.648116 -2.170360 -0.061985
C    -3.287171 3.728471 -0.234285
C    0.147547 -2.566467 -0.040297
H    -0.663548 -3.297650 -0.045852
H    0.754185 -2.712947 0.859183
H    0.770760 -2.715050 -0.927963
H    -3.707699 4.073807 0.717449
H    -4.077372 3.696911 -0.989478
H    -2.509255 4.430794 -0.539563
N    -2.644746 2.433820 -0.105301
C    -2.190177 0.242395 -0.096891
C    -3.233124 1.165765 -0.074700
C    4.035598 0.314738 -0.043891
C    3.459202 1.573807 -0.131123
S    2.786963 -0.916432 0.009125
H    1.432460 2.449620 -0.217664
H    4.055255 2.475460 -0.176169
C    2.053835 1.561299 -0.155420
C    1.502304 0.285540 -0.087519
C    8.302645 -0.787525 0.094662
C    7.869736 0.572569 0.002662
C    7.260288 -1.711614 0.138367
N    6.411396 2.279794 -0.134293
N    7.682131 2.658122 -0.145578
N    8.601690 1.707499 -0.062923
C    8.049107 4.064766 -0.168781
H    7.494476 -2.769756 0.211087
H    5.173312 -2.164847 0.135677
H    7.283736 4.607663 -0.723329
H    8.110953 4.453611 0.852267
H    9.019231 4.155738 -0.657223
C    5.897425 -1.356162 0.094114
C    6.489148 0.934014 -0.042301
C    5.442650 -0.041131 0.001731
C    11.874250 -2.429232 0.250306
C    12.052262 -1.074671 0.174893
S    10.195539 -2.855818 0.246122
H    10.755003 0.721226 0.048624
H    13.027794 -0.600638 0.164192
C    10.826294 -0.356506 0.112298
C    9.707511 -1.166072 0.140135
H    12.626322 -3.204706 0.307933
