71
DPPBTZ-torsion-2-7
C    -8.362750 0.265185 -0.821483
C    -9.552047 -0.317299 -0.278460
C    -8.543718 0.950576 -2.019020
N    -11.747663 -0.828435 -0.196306
N    -11.045805 -1.291738 0.828705
N    -9.742396 -1.035836 0.851583
C    -11.664907 -2.114075 1.855427
H    -7.685892 1.417621 -2.494906
H    -9.843441 1.629869 -3.600088
H    -12.728687 -1.879431 1.876871
H    -11.196983 -1.883655 2.813095
H    -11.522574 -3.173882 1.623064
C    -9.800880 1.075723 -2.666826
C    -10.812353 -0.187459 -0.934905
C    -10.950444 0.519782 -2.149164
H    -11.914002 0.611645 -2.638586
C    -4.615103 0.248269 0.443747
C    -5.379212 -0.439730 1.356979
S    -5.617772 0.855350 -0.860893
H    -7.501923 -1.018013 1.606166
H    -4.954777 -0.887933 2.248244
C    -6.753291 -0.509152 1.013457
C    -7.065522 0.142572 -0.162585
C    0.180081 -0.388750 0.331663
C    -0.909604 0.474145 0.473234
N    -0.329428 -1.682699 0.226544
C    -1.770451 -1.693567 0.290340
C    -1.265188 1.874364 0.584460
O    -0.609668 2.912182 0.671959
O    -2.433135 -2.716215 0.235088
C    -3.464708 3.076958 0.795318
C    0.385314 -2.938551 0.092907
H    -0.380072 -3.717488 0.073303
H    1.054420 -3.114490 0.941398
H    0.959636 -2.980056 -0.838344
H    -4.194508 2.946525 1.599895
H    -3.992656 3.375599 -0.116270
H    -2.749827 3.856941 1.063653
N    -2.698341 1.858927 0.599131
C    -2.110534 -0.289784 0.438984
C    -3.193400 0.559234 0.531408
C    4.087051 0.178752 0.151569
C    3.438212 1.390481 0.340498
S    2.917405 -1.125239 0.068254
H    1.365545 2.125592 0.561323
H    3.978409 2.324408 0.419071
C    2.038460 1.284908 0.418690
C    1.566365 -0.017340 0.291172
C    8.405001 -0.631764 -0.223935
C    7.891413 0.690003 -0.037262
C    7.422928 -1.619514 -0.270972
N    6.334687 2.289359 0.243233
N    7.577094 2.751048 0.206861
N    8.551341 1.866948 0.048978
C    7.862523 4.162290 0.409662
H    7.720519 -2.655155 -0.407384
H    5.371423 -2.208935 -0.201915
H    7.022426 4.738858 0.022619
H    7.992574 4.369440 1.476287
H    8.779324 4.405130 -0.127451
C    6.043621 -1.357147 -0.150266
C    6.494185 0.956962 0.085252
C    5.511077 -0.081207 0.029473
C    12.061789 -2.023008 -0.631060
C    12.157993 -0.667420 -0.471470
S    10.414973 -2.557663 -0.590211
H    10.757713 1.027968 -0.173857
H    13.101535 -0.132492 -0.466974
C    10.893433 -0.036437 -0.312662
C    9.827406 -0.913946 -0.350906
H    12.857662 -2.742309 -0.770679
