71
DPPBTZ-torsion-3-20
C    -8.142628 -1.272264 0.137418
C    -9.351673 -0.513568 0.020619
C    -8.328708 -2.638047 0.341490
N    -11.582275 -0.183255 -0.042225
N    -10.867238 0.920246 -0.210432
N    -9.543614 0.809406 -0.182023
C    -11.506002 2.218934 -0.350889
H    -7.458121 -3.280040 0.442267
H    -9.651375 -4.322436 0.587320
H    -12.512132 2.057843 -0.736700
H    -10.916465 2.821815 -1.042292
H    -11.556032 2.718759 0.621250
C    -9.606124 -3.249125 0.426877
C    -10.632805 -1.135752 0.107907
C    -10.773908 -2.525416 0.312785
H    -11.753566 -2.986508 0.376484
C    -4.337463 -0.191473 -0.014407
C    -5.126263 0.941746 -0.180753
S    -5.363019 -1.608983 0.191481
H    -7.269301 1.441318 -0.257249
H    -4.690415 1.926355 -0.320712
C    -6.508269 0.680561 -0.144436
C    -6.826567 -0.654085 0.050133
C    0.136334 1.592572 -0.112164
C    -0.706603 0.484741 -0.051453
N    -0.688073 2.715096 -0.239769
C    -2.073755 2.352269 -0.259706
C    -0.688617 -0.954922 0.100703
O    0.212435 -1.781749 0.173273
O    -2.973020 3.181113 -0.389695
C    -2.452511 -2.711833 0.249303
C    -0.309489 4.095182 -0.479321
H    -1.207332 4.605242 -0.833345
H    0.476737 4.156916 -1.236830
H    0.029195 4.592310 0.437249
H    -3.028550 -3.049298 -0.618293
H    -3.025289 -2.901579 1.162783
H    -1.514359 -3.268913 0.294957
N    -2.080727 -1.313683 0.132299
C    -2.058489 0.912736 -0.123703
C    -2.901726 -0.195913 -0.004502
C    4.026204 1.068659 0.057790
C    3.765030 2.403654 0.330588
S    2.535476 0.200490 -0.240811
H    2.029418 3.721299 0.507990
H    4.549421 3.113112 0.558121
C    2.397249 2.728593 0.289063
C    1.569322 1.654069 -0.020911
C    7.909182 -1.017030 -0.081359
C    7.811569 0.395509 0.121416
C    6.678559 -1.655333 -0.221376
N    6.800612 2.390858 0.363834
N    8.124540 2.449983 0.418766
N    8.791308 1.312131 0.288723
C    8.812541 3.701265 0.690114
H    6.654410 -2.730598 -0.373051
H    4.543931 -1.590046 -0.287686
H    8.228452 4.513558 0.257265
H    8.909461 3.851107 1.769897
H    9.801653 3.651118 0.235067
C    5.439194 -0.985417 -0.174046
C    6.556912 1.075745 0.169091
C    5.310806 0.389639 0.016169
C    10.987512 -3.455420 -0.318268
C    11.480961 -2.197780 -0.101463
S    9.257305 -3.459490 -0.398333
H    10.646994 -0.160064 0.174835
H    12.539974 -1.978138 -0.018976
C    10.461002 -1.212142 0.004051
C    9.183598 -1.719379 -0.132434
H    11.533815 -4.381632 -0.436530
