71
DPPBTZ-torsion-3-0
C    -8.555731 0.529446 0.000283
C    -9.545404 -0.505683 0.000236
C    -9.067738 1.825545 0.000548
N    -11.630313 -1.366739 0.000334
N    -10.667969 -2.279126 0.000079
N    -9.410860 -1.851180 -0.000006
C    -10.972489 -3.701217 0.000005
H    -8.378311 2.665158 0.000594
H    -10.760001 3.160964 0.000956
H    -12.056593 -3.803025 -0.000431
H    -10.545017 -4.165761 0.891849
H    -10.544271 -4.165785 -0.891460
C    -10.455775 2.118258 0.000757
C    -10.939700 -0.202909 0.000447
C    -11.413739 1.126840 0.000710
H    -12.476466 1.343673 0.000867
C    -4.599246 0.382089 -0.000171
C    -5.091137 -0.918935 -0.000393
S    -5.938845 1.526843 0.000190
H    -7.050365 -1.923353 -0.000390
H    -4.430242 -1.780242 -0.000626
C    -6.496000 -0.994172 -0.000259
C    -7.128610 0.238754 0.000068
C    0.177052 -0.277312 -0.000438
C    -0.911744 0.600790 -0.000347
N    -0.351407 -1.567769 -0.000575
C    -1.785728 -1.552387 -0.000514
C    -1.244550 2.007220 -0.000142
O    -0.572257 3.036584 -0.000054
O    -2.458267 -2.581360 -0.000675
C    -3.378937 3.294295 0.000128
C    0.348497 -2.839642 -0.000830
H    -0.425779 -3.609427 -0.001000
H    0.969939 -2.956839 0.892718
H    0.969973 -2.956458 -0.894403
H    -4.000373 3.411229 0.893721
H    -4.000531 3.411365 -0.893337
H    -2.604584 4.064010 0.000123
N    -2.679081 2.022454 -0.000036
C    -2.118590 -0.145666 -0.000393
C    -3.207174 0.732034 -0.000213
C    4.098783 0.216760 -0.000198
C    3.463782 1.450341 -0.000386
S    2.908334 -1.072253 -0.000162
H    1.398762 2.234835 -0.000595
H    4.016947 2.380021 -0.000449
C    2.060322 1.373987 -0.000482
C    1.568232 0.072146 -0.000363
C    8.412890 -0.693390 0.000233
C    7.917581 0.648294 0.000023
C    7.414156 -1.665502 0.000301
N    6.381537 2.291483 -0.000346
N    7.634295 2.727995 -0.000332
N    8.596332 1.817796 -0.000108
C    7.942070 4.149285 -0.000158
H    7.697286 -2.714161 0.000465
H    5.350101 -2.213841 0.000238
H    6.996436 4.689107 -0.002135
H    8.520862 4.397283 0.892845
H    8.524296 4.396612 -0.891088
C    6.036065 -1.371548 0.000167
C    6.521575 0.947572 -0.000111
C    5.520878 -0.075620 -0.000049
C    12.057613 -2.174200 0.000751
C    12.172519 -0.810788 0.000507
S    10.400066 -2.677177 0.000625
H    10.792963 0.927424 0.000113
H    13.125166 -0.292173 0.000503
C    10.914278 -0.147729 0.000295
C    9.834067 -1.008515 0.000370
H    12.844967 -2.916064 0.000959
