71
DPPBTZ-torsion-5-34
C    -8.555198 0.530880 0.019382
C    -9.545728 -0.503332 -0.001828
C    -9.066203 1.826935 0.050681
N    -11.631285 -1.362786 -0.023501
N    -10.670048 -2.275232 -0.051973
N    -9.412031 -1.848321 -0.037218
C    -10.977895 -3.696146 -0.028514
H    -8.376264 2.665881 0.070553
H    -10.757591 3.163000 0.083168
H    -11.979190 -3.829367 -0.436921
H    -10.942795 -4.070079 0.999273
H    -10.238117 -4.220523 -0.634122
C    -10.454102 2.120360 0.058459
C    -10.939947 -0.199838 0.006459
C    -11.412899 1.130031 0.035593
H    -12.475441 1.347660 0.040706
C    -4.598859 0.381292 0.006406
C    -5.091516 -0.919272 -0.015596
S    -5.937698 1.526589 0.030068
H    -7.051323 -1.922377 -0.028675
H    -4.431115 -1.780788 -0.032590
C    -6.496397 -0.993666 -0.013372
C    -7.128278 0.239413 0.010344
C    0.177056 -0.280441 -0.018591
C    -0.911201 0.598046 0.000423
N    -0.352055 -1.570420 -0.040743
C    -1.786370 -1.554359 -0.036452
C    -1.243292 2.004412 0.026900
O    -0.570369 3.033228 0.043807
O    -2.459469 -2.582833 -0.053261
C    -3.376912 3.292343 0.056285
C    0.347117 -2.842478 -0.065794
H    -0.427635 -3.611687 -0.077590
H    0.971014 -2.975972 0.823739
H    0.965984 -2.943549 -0.963083
H    -3.996138 3.393070 0.953365
H    -4.000553 3.426107 -0.833398
H    -2.602103 4.061493 0.068583
N    -2.677739 2.020333 0.031080
C    -2.118477 -0.147718 -0.009897
C    -3.206551 0.730366 0.009020
C    4.098905 0.211519 -0.019855
C    3.464888 1.445227 0.004727
S    2.907950 -1.076591 -0.040999
H    1.400177 2.230651 0.024840
H    4.018836 2.374352 0.020900
C    2.061267 1.369628 0.006941
C    1.568511 0.068309 -0.015960
C    8.410499 -0.696604 -0.052717
C    7.916110 0.643945 -0.033141
C    7.415363 -1.671255 -0.056362
N    6.382156 2.287977 -0.008520
N    7.635376 2.722752 -0.015285
N    8.597604 1.811540 -0.024385
C    7.939263 4.142336 0.064847
H    7.703345 -2.718189 -0.083238
H    5.350165 -2.218651 -0.051216
H    7.153271 4.690524 -0.454806
H    7.979595 4.458893 1.111582
H    8.906627 4.309683 -0.408361
C    6.036557 -1.376694 -0.043648
C    6.520675 0.943939 -0.023277
C    5.521352 -0.080837 -0.028979
C    12.058821 -2.155295 0.111133
C    12.160281 -0.850297 -0.288517
S    10.412136 -2.610875 0.396828
H    10.768816 0.836625 -0.667792
H    13.104618 -0.368014 -0.516911
C    10.899731 -0.196687 -0.373734
C    9.833557 -1.006364 -0.037679
H    12.851712 -2.874971 0.264978
