71
DPPBTZ-torsion-3-19
C    -8.123669 -1.294930 0.074352
C    -9.338807 -0.540345 0.002711
C    -8.298749 -2.672240 0.192877
N    -11.571985 -0.224969 -0.043886
N    -10.865858 0.892656 -0.141762
N    -9.541390 0.791050 -0.117663
C    -11.515203 2.192275 -0.202171
H    -7.423034 -3.312108 0.255485
H    -9.607811 -4.379365 0.331037
H    -12.517433 2.048293 -0.604595
H    -10.926472 2.843495 -0.848941
H    -11.575935 2.627577 0.799940
C    -9.571200 -3.297827 0.237631
C    -10.614884 -1.177168 0.048642
C    -10.744780 -2.577993 0.166445
H    -11.720677 -3.050145 0.199429
C    -4.327241 -0.175601 -0.004234
C    -5.125418 0.959472 -0.097632
S    -5.341420 -1.611868 0.108137
H    -7.272414 1.445427 -0.143563
H    -4.697673 1.954466 -0.174371
C    -6.505214 0.685175 -0.079701
C    -6.812711 -0.661786 0.027807
C    0.137279 1.643983 -0.042805
C    -0.700710 0.528460 -0.016337
N    -0.698075 2.764444 -0.114432
C    -2.081911 2.392098 -0.130817
C    -0.673480 -0.916197 0.065081
O    0.233492 -1.739758 0.103907
O    -2.989342 3.218908 -0.205601
C    -2.423141 -2.691356 0.138510
C    -0.342067 4.163147 -0.257797
H    -1.273414 4.694162 -0.463065
H    0.354348 4.310276 -1.088826
H    0.094860 4.568598 0.661809
H    -2.995108 -2.997503 -0.743268
H    -2.995949 -2.922418 1.042379
H    -1.480818 -3.242633 0.162849
N    -2.062150 -1.286735 0.079387
C    -2.055479 0.949193 -0.058173
C    -2.891595 -0.169848 0.004054
C    4.027664 1.095456 0.039580
C    3.789540 2.454361 0.185230
S    2.519546 0.219586 -0.110605
H    2.081974 3.807533 0.290121
H    4.588290 3.174370 0.303362
C    2.424731 2.790641 0.168416
C    1.571906 1.701174 0.008378
C    7.884077 -1.041797 -0.047686
C    7.806481 0.382612 0.056855
C    6.643594 -1.673141 -0.113012
N    6.823391 2.402361 0.182658
N    8.148850 2.448766 0.201212
N    8.799879 1.296398 0.135615
C    8.856733 3.707363 0.367028
H    6.604308 -2.755903 -0.189602
H    4.509078 -1.586353 -0.136474
H    8.272724 4.494002 -0.110990
H    8.978864 3.933258 1.430904
H    9.835005 3.611720 -0.103850
C    5.413067 -0.986401 -0.083421
C    6.560695 1.080024 0.086711
C    5.303768 0.400199 0.013457
C    10.929275 -3.528900 -0.182951
C    11.441509 -2.264768 -0.074361
S    9.197586 -3.517597 -0.215993
H    10.636573 -0.201988 0.070757
H    12.504609 -2.052688 -0.037033
C    10.435107 -1.261494 -0.015734
C    9.149220 -1.761669 -0.079684
H    11.462536 -4.468032 -0.245940
