71
DPPBTZ-torsion-1-30
C    -8.561672 0.267557 0.584130
C    -9.518751 -0.396183 -0.236718
C    -9.067719 1.256896 1.416030
N    -11.567058 -0.867504 -1.048320
N    -10.589732 -1.594259 -1.577843
N    -9.349948 -1.374178 -1.155193
C    -10.858086 -2.549164 -2.641350
H    -8.380619 1.802851 2.055961
H    -10.773557 2.347502 2.169961
H    -11.861741 -2.948410 -2.495350
H    -10.111110 -3.340783 -2.584610
H    -10.796134 -2.052680 -3.614561
C    -10.454220 1.570299 1.481525
C    -10.907002 -0.078851 -0.168294
C    -11.390194 0.919933 0.706260
H    -12.447452 1.158706 0.753576
C    -4.609668 0.179681 0.367751
C    -5.063205 -1.115441 0.592603
S    -5.981938 1.276995 0.234478
H    -6.996455 -2.147742 0.835237
H    -4.378035 -1.949397 0.710689
C    -6.468276 -1.217998 0.657564
C    -7.125382 -0.019636 0.471456
C    0.181521 -0.367045 0.260574
C    -0.930256 0.475559 0.167607
N    -0.309414 -1.651866 0.491936
C    -1.742469 -1.667817 0.554007
C    -1.303402 1.855276 -0.043946
O    -0.662896 2.886372 -0.239196
O    -2.384807 -2.697193 0.751784
C    -3.474820 3.075952 -0.158026
C    0.426112 -2.891175 0.667105
H    -0.325182 -3.667063 0.827265
H    1.086857 -2.846938 1.538775
H    1.013490 -3.139499 -0.222666
H    -4.064063 3.322827 0.731094
H    -4.134399 3.031464 -1.030596
H    -2.724834 3.853491 -0.316276
N    -2.737519 1.837984 0.017388
C    -2.115032 -0.287849 0.341170
C    -3.226366 0.553592 0.248020
C    4.084637 0.204954 0.004367
C    3.415327 1.408330 -0.164479
S    2.932471 -1.092538 0.264507
H    1.330332 2.137700 -0.196733
H    3.941363 2.337470 -0.338553
C    2.015637 1.302607 -0.088674
C    1.561532 0.007708 0.142131
C    8.419746 -0.598902 -0.047987
C    7.885842 0.713676 -0.242393
C    7.450875 -1.579031 0.159277
N    6.303493 2.299819 -0.443726
N    7.540661 2.756458 -0.581107
N    8.529219 1.880863 -0.470210
C    7.804098 4.174025 -0.768031
H    7.764194 -2.606697 0.319145
H    5.405582 -2.164330 0.347106
H    6.965788 4.607309 -1.313480
H    7.907856 4.668005 0.202948
H    8.729573 4.276961 -1.334545
C    6.066003 -1.319026 0.175800
C    6.482890 0.978438 -0.225795
C    5.513474 -0.052643 -0.013214
C    12.102152 -1.981983 0.014593
C    12.177972 -0.633165 -0.202327
S    10.461120 -2.514628 0.168245
H    10.750592 1.053251 -0.409231
H    13.114592 -0.100375 -0.326319
C    10.902385 -0.005772 -0.247740
C    9.848135 -0.879152 -0.064546
H    12.909712 -2.697450 0.093607
