71
DPPBTZ-torsion-2-9
C    -8.326134 -0.216607 -0.856583
C    -9.555209 -0.370318 -0.139944
C    -8.442073 -0.310784 -2.239651
N    -11.773743 -0.696914 0.106077
N    -11.121989 -0.527855 1.248342
N    -9.809133 -0.333504 1.188311
C    -11.806281 -0.625003 2.527254
H    -7.550050 -0.212790 -2.852153
H    -9.665648 -0.595490 -3.992695
H    -12.857540 -0.389582 2.364096
H    -11.351969 0.085766 3.218334
H    -11.710520 -1.638852 2.927845
C    -9.674520 -0.536437 -2.908111
C    -10.790053 -0.597943 -0.817894
C    -10.862302 -0.682372 -2.225557
H    -11.806998 -0.855335 -2.729607
C    -4.629734 0.446345 0.381497
C    -5.431131 0.314877 1.487891
S    -5.569448 0.272380 -1.085054
H    -7.572672 -0.062399 1.916561
H    -5.045914 0.380589 2.499631
C    -6.795692 0.072984 1.175762
C    -7.053492 0.018984 -0.178206
C    0.169521 -0.283623 0.239483
C    -0.910970 0.601299 0.252511
N    -0.352508 -1.575615 0.296203
C    -1.794374 -1.564780 0.347150
C    -1.249786 2.009838 0.219591
O    -0.582792 3.043359 0.168121
O    -2.467372 -2.579589 0.402922
C    -3.449868 3.241836 0.261249
C    0.349146 -2.845844 0.308865
H    -0.425075 -3.614514 0.360449
H    1.002793 -2.937803 1.182350
H    0.937143 -2.991884 -0.603061
H    -4.070620 3.322317 1.159197
H    -4.095444 3.302315 -0.621105
H    -2.727593 4.059744 0.240255
N    -2.681689 2.010474 0.266421
C    -2.121202 -0.149373 0.316338
C    -3.189973 0.717124 0.329334
C    4.086302 0.219042 0.078638
C    3.447486 1.450577 0.068744
S    2.904061 -1.073480 0.158163
H    1.378595 2.226765 0.125407
H    3.996493 2.381509 0.022384
C    2.044953 1.368827 0.123919
C    1.561067 0.065944 0.177860
C    8.402357 -0.672919 -0.059367
C    7.900003 0.665988 -0.084353
C    7.410164 -1.648815 0.014932
N    6.355869 2.301733 -0.085241
N    7.604171 2.742889 -0.157019
N    8.571469 1.837366 -0.156342
C    7.901013 4.166329 -0.158210
H    7.698746 -2.695578 0.041565
H    5.350741 -2.204835 0.117008
H    7.081545 4.685162 -0.655539
H    7.998930 4.530088 0.869209
H    8.837837 4.318269 -0.694103
C    6.031494 -1.360269 0.059170
C    6.503445 0.959418 -0.039516
C    5.509920 -0.067587 0.033562
C    12.051327 -2.138393 -0.159544
C    12.159562 -0.774953 -0.200901
S    10.397897 -2.647888 -0.082596
H    10.772454 0.956936 -0.195358
H    13.108942 -0.252888 -0.251417
C    10.899009 -0.117319 -0.170672
C    9.824020 -0.982257 -0.105782
H    12.841877 -2.876790 -0.169820
