71
DPPBTZ-torsion-5-3
C    -8.555116 0.532395 -0.023316
C    -9.545908 -0.501526 -0.004280
C    -9.065714 1.828672 -0.053545
N    -11.631758 -1.360189 0.006677
N    -10.670421 -2.273370 0.030160
N    -9.412843 -1.846784 0.025590
C    -10.976518 -3.694745 0.060962
H    -8.375384 2.667401 -0.069130
H    -10.756501 3.165508 -0.089051
H    -12.060700 -3.795543 0.054176
H    -10.556867 -4.138851 0.966856
H    -10.541615 -4.180377 -0.815899
C    -10.453438 2.122739 -0.065156
C    -10.939892 -0.197387 -0.016140
C    -11.412478 1.132556 -0.047060
H    -12.474962 1.350385 -0.055781
C    -4.598856 0.380987 -0.006603
C    -5.092176 -0.919160 0.023026
S    -5.937129 1.526778 -0.038794
H    -7.052556 -1.921219 0.040480
H    -4.432209 -1.780871 0.046115
C    -6.497109 -0.992908 0.020049
C    -7.128319 0.240339 -0.011683
C    0.176688 -0.282677 0.027990
C    -0.911108 0.596090 0.001831
N    -0.352987 -1.572268 0.057931
C    -1.787292 -1.555620 0.051775
C    -1.242514 2.002420 -0.033926
O    -0.569146 3.030802 -0.056575
O    -2.460857 -2.583690 0.074566
C    -3.375542 3.291100 -0.074263
C    0.345613 -2.844433 0.092306
H    -0.429487 -3.613213 0.108507
H    0.963515 -2.939676 0.990893
H    0.970370 -2.984229 -0.795656
H    -4.000153 3.431077 0.813781
H    -3.993687 3.386158 -0.972708
H    -2.600369 4.059807 -0.090767
N    -2.676993 2.018961 -0.039791
C    -2.118760 -0.149067 0.015569
C    -3.206381 0.729406 -0.010069
C    4.098687 0.207523 0.031394
C    3.465496 1.441248 -0.002300
S    2.907261 -1.079870 0.058620
H    1.401077 2.227550 -0.029874
H    4.020002 2.369959 -0.024043
C    2.061709 1.366335 -0.005806
C    1.568412 0.065476 0.024892
C    8.407692 -0.699269 0.079591
C    7.914604 0.639758 0.036529
C    7.415709 -1.675712 0.099904
N    6.383413 2.284390 -0.027190
N    7.638062 2.716235 -0.044973
N    8.599267 1.804753 -0.004909
C    7.943921 4.137651 -0.035820
H    7.707679 -2.720801 0.146306
H    5.349134 -2.221491 0.110309
H    7.177418 4.657641 -0.610811
H    7.951215 4.513626 0.991893
H    8.926457 4.274574 -0.486807
C    6.036170 -1.380412 0.084019
C    6.519907 0.940866 0.023496
C    5.521496 -0.084855 0.045458
C    12.058292 -2.139417 -0.160328
C    12.148039 -0.895927 0.404743
S    10.421507 -2.544318 -0.558290
H    10.746185 0.736976 0.948842
H    13.084614 -0.452635 0.725514
C    10.885863 -0.250992 0.528465
C    9.832963 -1.004004 0.052216
H    12.855625 -2.836880 -0.379622
