71
DPPBTZ-torsion-1-32
C    -8.555999 0.427610 0.397751
C    -9.530300 -0.462526 -0.147245
C    -9.062591 1.604040 0.939364
N    -11.597158 -1.177351 -0.690180
N    -10.625024 -2.014719 -1.030481
N    -9.375258 -1.663400 -0.748419
C    -10.911186 -3.241834 -1.756349
H    -8.371676 2.319834 1.375334
H    -10.764251 2.839931 1.424570
H    -11.907948 -3.579312 -1.472794
H    -10.157789 -3.982110 -1.487058
H    -10.876189 -3.056151 -2.834208
C    -10.451625 1.902888 0.972723
C    -10.922598 -0.157803 -0.109497
C    -11.400018 1.043654 0.459904
H    -12.460811 1.269178 0.484699
C    -4.605510 0.301987 0.245458
C    -5.080524 -0.992145 0.433458
S    -5.959936 1.421547 0.113753
H    -7.029107 -2.004519 0.614438
H    -4.408303 -1.837949 0.540904
C    -6.485527 -1.078134 0.475134
C    -7.126761 0.136137 0.315220
C    0.177717 -0.310618 0.190174
C    -0.921138 0.550022 0.104502
N    -0.334312 -1.593721 0.381339
C    -1.768040 -1.590634 0.423874
C    -1.271749 1.940180 -0.076384
O    -0.613537 2.966295 -0.235703
O    -2.427406 -2.615421 0.586186
C    -3.422793 3.195540 -0.187414
C    0.381327 -2.847543 0.534315
H    -0.382855 -3.616456 0.664223
H    1.030489 -2.835097 1.415665
H    0.977426 -3.081288 -0.353592
H    -4.021822 3.426373 0.699407
H    -4.069480 3.185123 -1.070653
H    -2.659214 3.965779 -0.312994
N    -2.706253 1.942321 -0.035547
C    -2.118416 -0.200215 0.242203
C    -3.216984 0.659461 0.155278
C    4.091339 0.211709 -0.000102
C    3.441286 1.428749 -0.145149
S    2.917759 -1.075533 0.210415
H    1.367457 2.188705 -0.184818
H    3.982594 2.354524 -0.287409
C    2.039461 1.341254 -0.090243
C    1.564072 0.047251 0.099873
C    8.414992 -0.652720 -0.018889
C    7.902212 0.672369 -0.183144
C    7.429778 -1.624217 0.148046
N    6.345118 2.286143 -0.360162
N    7.590334 2.728598 -0.468565
N    8.564891 1.836061 -0.369572
C    7.876076 4.146905 -0.611913
H    7.726432 -2.660394 0.282777
H    5.374163 -2.185059 0.292603
H    7.051652 4.607238 -1.156374
H    7.973016 4.612033 0.373907
H    8.810773 4.252376 -1.162600
C    6.048596 -1.344845 0.153949
C    6.503008 0.956776 -0.177288
C    5.516465 -0.065836 -0.006403
C    12.076469 -2.089731 0.053212
C    12.174040 -0.736795 -0.126191
S    10.426275 -2.602669 0.171574
H    10.773291 0.974900 -0.305559
H    13.119590 -0.214401 -0.223834
C    10.908094 -0.090148 -0.170847
C    9.839388 -0.952909 -0.024778
H    12.872824 -2.818581 0.123101
