71
DPPBTZ-torsion-5-14
C    -8.564867 0.581147 0.008707
C    -9.569149 -0.439522 -0.019966
C    -9.058441 1.883853 0.043060
N    -11.666006 -1.270648 -0.052484
N    -10.717074 -2.195874 -0.080904
N    -9.453472 -1.786050 -0.059969
C    -11.044140 -3.612584 -0.064118
H    -8.357346 2.713340 0.068682
H    -10.731766 3.242506 0.074456
H    -12.046174 -3.730498 -0.475394
H    -11.016517 -3.991228 0.962170
H    -10.310115 -4.144436 -0.670218
C    -10.442282 2.195964 0.046900
C    -10.959166 -0.117262 -0.015604
C    -11.414240 1.218752 0.016812
H    -12.473764 1.450678 0.018884
C    -4.610919 0.378297 0.008699
C    -5.120917 -0.915448 -0.018503
S    -5.934280 1.541438 0.030939
H    -7.094033 -1.892018 -0.041110
H    -4.472081 -1.785708 -0.035566
C    -6.526684 -0.970934 -0.021306
C    -7.141951 0.270490 0.003689
C    0.155647 -0.347488 -0.000584
C    -0.920657 0.545377 0.016039
N    -0.390589 -1.630228 -0.027288
C    -1.824603 -1.594928 -0.028395
C    -1.233891 1.956071 0.044574
O    -0.547311 2.975630 0.065984
O    -2.511308 -2.614316 -0.049952
C    -3.350151 3.272556 0.069156
C    0.291472 -2.911486 -0.053763
H    -0.493547 -3.670106 -0.071527
H    0.909646 -3.056487 0.837978
H    0.912837 -3.017771 -0.948716
H    -3.970968 3.379947 0.964363
H    -3.968920 3.416368 -0.822350
H    -2.565118 4.031192 0.085527
N    -2.668081 1.991271 0.043840
C    -2.137878 -0.184070 -0.000226
C    -3.214027 0.708621 0.016955
C    4.083624 0.091196 0.015872
C    3.466935 1.333251 0.037397
S    2.875685 -1.180489 -0.010779
H    1.412779 2.146888 0.048457
H    4.033808 2.254586 0.055743
C    2.062085 1.276908 0.033332
C    1.551921 -0.017429 0.008171
C    8.378699 -0.868563 0.001635
C    7.903709 0.474386 0.018308
C    7.377556 -1.834918 -0.005617
N    6.395787 2.140932 0.030791
N    7.657347 2.554838 0.029178
N    8.605092 1.629492 0.028150
C    7.983903 3.970006 0.101559
H    7.664937 -2.881444 -0.036135
H    5.302755 -2.354781 -0.006107
H    7.246699 4.524613 -0.479724
H    7.960646 4.306848 1.142375
H    8.984068 4.105100 -0.308967
C    6.000884 -1.522445 0.004552
C    6.513220 0.794590 0.019912
C    5.503151 -0.219568 0.014081
C    12.279265 -1.389075 -0.160191
C    11.760921 -2.372275 0.639575
S    11.049225 -0.323736 -0.751124
H    9.754580 -2.947391 1.389001
H    12.365252 -3.130252 1.126049
C    10.348119 -2.279042 0.774598
C    9.792210 -1.233149 0.067575
H    13.314013 -1.219674 -0.427207
