71
DPPBTZ-torsion-2-35
C    -8.546902 0.525851 0.147337
C    -9.541220 -0.503217 0.087912
C    -9.050023 1.812979 0.326040
N    -11.627217 -1.361233 0.120996
N    -10.672269 -2.267217 -0.035827
N    -9.414704 -1.840076 -0.070096
C    -10.990624 -3.672019 -0.234510
H    -8.356921 2.647870 0.379111
H    -10.731107 3.137805 0.582585
H    -11.964006 -3.862700 0.216410
H    -10.216418 -4.273025 0.243363
H    -11.025284 -3.900686 -1.304062
C    -10.433752 2.102221 0.444876
C    -10.931200 -0.203953 0.207967
C    -11.396004 1.116461 0.391173
H    -12.455315 1.330865 0.482142
C    -4.598098 0.380863 -0.091598
C    -5.097151 -0.910172 -0.224933
S    -5.927806 1.517824 0.113090
H    -7.060059 -1.908011 -0.236140
H    -4.441977 -1.766664 -0.348019
C    -6.500511 -0.985466 -0.155705
C    -7.124113 0.238274 0.027841
C    0.176300 -0.278532 -0.105245
C    -0.911580 0.600168 -0.136849
N    -0.352864 -1.568723 -0.086704
C    -1.787296 -1.552788 -0.108444
C    -1.244645 2.006694 -0.156218
O    -0.572396 3.035814 -0.178859
O    -2.461208 -2.580453 -0.118417
C    -3.380698 3.291803 -0.205188
C    0.346342 -2.840905 -0.072445
H    -0.428356 -3.610237 -0.082423
H    0.953572 -2.956163 0.831091
H    0.981734 -2.960363 -0.955804
H    -3.960830 3.471737 0.705969
H    -4.043239 3.346230 -1.074392
H    -2.608848 4.059393 -0.289639
N    -2.679229 2.021740 -0.152677
C    -2.118555 -0.145868 -0.129579
C    -3.206616 0.731173 -0.139600
C    4.097388 0.215181 -0.041852
C    3.463379 1.448194 -0.094884
S    2.906520 -1.073230 -0.025289
H    1.399200 2.232123 -0.161813
H    4.017171 2.377329 -0.113500
C    2.060197 1.371739 -0.121863
C    1.567465 0.070515 -0.090409
C    8.410414 -0.693116 0.073972
C    7.915400 0.647719 0.020472
C    7.411642 -1.665049 0.088907
N    6.380059 2.289261 -0.070115
N    7.632018 2.725869 -0.067791
N    8.594345 1.816558 -0.010735
C    7.933837 4.147988 -0.049425
H    7.694302 -2.712951 0.131548
H    5.347781 -2.213612 0.068604
H    7.143489 4.671115 -0.587683
H    7.979138 4.508978 0.982662
H    8.898068 4.298006 -0.534979
C    6.033924 -1.371604 0.052057
C    6.519666 0.946397 -0.016924
C    5.519066 -0.076708 -0.003285
C    12.053761 -2.172743 0.187826
C    12.169229 -0.809790 0.153212
S    10.396418 -2.675758 0.167545
H    10.790715 0.927517 0.077925
H    13.121908 -0.291266 0.158620
C    10.911530 -0.147213 0.109618
C    9.831172 -1.007844 0.111066
H    12.840685 -2.914190 0.223807
