71
DPPBTZ-torsion-5-35
C    -8.555310 0.529768 0.012906
C    -9.545442 -0.504923 -0.003022
C    -9.066819 1.825803 0.035556
N    -11.630656 -1.365255 -0.021924
N    -10.669061 -2.277510 -0.043538
N    -9.411215 -1.850055 -0.029899
C    -10.976424 -3.698366 -0.011723
H    -8.377206 2.665106 0.051205
H    -10.758723 3.161428 0.057711
H    -11.977105 -3.834494 -0.420679
H    -10.942604 -4.065937 1.018399
H    -10.235620 -4.226184 -0.613072
C    -10.454835 2.118764 0.039812
C    -10.939777 -0.201890 0.001664
C    -11.413246 1.127962 0.021923
H    -12.475873 1.345222 0.024392
C    -4.598905 0.381594 0.004640
C    -5.091055 -0.919292 -0.007544
S    -5.938200 1.526534 0.017949
H    -7.050470 -1.923217 -0.014617
H    -4.430306 -1.780658 -0.017067
C    -6.495909 -0.994201 -0.006080
C    -7.128277 0.238785 0.007367
C    0.177297 -0.278548 -0.009681
C    -0.911353 0.599665 0.000803
N    -0.351381 -1.568886 -0.021806
C    -1.785637 -1.553297 -0.019367
C    -1.243939 2.006070 0.015467
O    -0.571427 3.035253 0.024695
O    -2.458386 -2.582109 -0.028580
C    -3.378077 3.293439 0.031947
C    0.348298 -2.840846 -0.035833
H    -0.426145 -3.610428 -0.042520
H    0.971069 -2.967040 0.855553
H    0.968382 -2.948795 -0.931477
H    -3.998106 3.401466 0.927629
H    -4.001019 3.419540 -0.859341
H    -2.603559 4.062955 0.038469
N    -2.678436 2.021515 0.017955
C    -2.118322 -0.146596 -0.004757
C    -3.206740 0.731234 0.005849
C    4.099021 0.214898 -0.010135
C    3.464323 1.448559 0.002876
S    2.908480 -1.073863 -0.021686
H    1.399372 2.233247 0.013651
H    4.017797 2.378044 0.011473
C    2.060831 1.372374 0.004008
C    1.568544 0.070665 -0.008255
C    8.412642 -0.693929 -0.026077
C    7.917161 0.647389 -0.020587
C    7.415190 -1.667037 -0.024574
N    6.381160 2.290481 -0.015209
N    7.633323 2.726927 -0.024977
N    8.596292 1.816489 -0.023289
C    7.935994 4.147508 0.040037
H    7.699901 -2.715172 -0.036627
H    5.350954 -2.215484 -0.017909
H    7.137906 4.689960 -0.466831
H    7.997293 4.470903 1.083680
H    8.892864 4.314777 -0.454285
C    6.036858 -1.373113 -0.017691
C    6.521182 0.946592 -0.015436
C    5.521227 -0.077346 -0.014586
C    12.058376 -2.168330 0.060513
C    12.169649 -0.820722 -0.149223
S    10.403824 -2.658470 0.210768
H    10.786935 0.903660 -0.347234
H    13.120067 -0.311919 -0.268920
C    10.910770 -0.160319 -0.194193
C    9.834299 -1.007512 -0.019208
H    12.847287 -2.904096 0.141458
