71
DPPBTZ-torsion-1-7
C    -8.569224 0.144431 -0.671368
C    -9.500520 -0.336215 0.292050
C    -9.096138 0.950300 -1.669287
N    -11.522312 -0.609708 1.248574
N    -10.528727 -1.215177 1.888877
N    -9.304174 -1.106413 1.386333
C    -10.782711 -2.029690 3.066646
H    -8.425708 1.352419 -2.423352
H    -10.822376 1.885029 -2.574323
H    -11.642883 -1.612635 3.590209
H    -9.893138 -2.004671 3.695837
H    -10.995829 -3.061129 2.769580
C    -10.483713 1.257864 -1.754625
C    -10.889280 -0.025144 0.204572
C    -11.395651 0.786146 -0.835202
H    -12.452856 1.022412 -0.895935
C    -4.613980 0.089999 -0.426157
C    -5.054101 -1.211667 -0.634519
S    -5.996742 1.178036 -0.327997
H    -6.977261 -2.263609 -0.882044
H    -4.361239 -2.042031 -0.731173
C    -6.458951 -1.326386 -0.713233
C    -7.125969 -0.131566 -0.554686
C    0.181455 -0.411335 -0.277577
C    -0.938342 0.422126 -0.202855
N    -0.296256 -1.703589 -0.495311
C    -1.728694 -1.733535 -0.566430
C    -1.325522 1.801021 -0.012710
O    -0.696055 2.840500 0.173720
O    -2.360380 -2.771373 -0.754155
C    -3.509288 3.002615 0.071052
C    0.451593 -2.938437 -0.648235
H    -0.291626 -3.723379 -0.801842
H    1.035696 -3.168620 0.248541
H    1.117300 -2.900641 -1.516438
H    -4.176166 2.961158 0.938197
H    -4.092934 3.234575 -0.825748
H    -2.767929 3.788769 0.227354
N    -2.759140 1.769697 -0.084485
C    -2.115103 -0.354423 -0.374441
C    -3.234304 0.478005 -0.301151
C    4.077679 0.199847 -0.005707
C    3.396423 1.398951 0.144329
S    2.939053 -1.111219 -0.257144
H    1.304600 2.109245 0.156144
H    3.912836 2.335052 0.309708
C    1.998153 1.279292 0.062039
C    1.557349 -0.022420 -0.155422
C    8.419728 -0.563097 0.078221
C    7.873339 0.748579 0.241583
C    7.460165 -1.557356 -0.103232
N    6.276601 2.326156 0.389794
N    7.509906 2.799479 0.503497
N    8.505978 1.928348 0.431421
C    7.754730 4.206760 0.774454
H    7.782979 -2.586346 -0.232837
H    5.420522 -2.166354 -0.276900
H    6.956553 4.786879 0.311405
H    7.762655 4.385575 1.854059
H    8.722886 4.472137 0.349874
C    6.073001 -1.310490 -0.129220
C    6.468057 1.000018 0.215489
C    5.508698 -0.044476 0.023762
C    12.115432 -1.911304 0.042675
C    12.177514 -0.559786 0.246781
S    10.480200 -2.461001 -0.112785
H    10.733317 1.114879 0.431247
H    13.108497 -0.016915 0.369503
C    10.895835 0.055806 0.280913
C    9.850702 -0.829386 0.102287
H    12.930105 -2.619697 -0.026432
