71
DPPBTZ-torsion-2-18
C    -8.049603 -1.054648 0.001742
C    -9.417341 -0.630299 -0.004952
C    -7.866400 -2.435789 0.009904
N    -11.658302 -0.891501 -0.018153
N    -11.261524 0.373342 -0.028538
N    -9.953969 0.611166 -0.017302
C    -12.220999 1.464390 0.017464
H    -6.855857 -2.834353 0.017771
H    -8.696654 -4.424908 0.015161
H    -13.169194 1.092864 -0.369754
H    -11.845532 2.283636 -0.596764
H    -12.349500 1.807949 1.048487
C    -8.937894 -3.365918 0.008765
C    -10.489049 -1.572578 -0.005775
C    -10.256760 -2.965218 -0.000298
H    -11.080302 -3.671085 -0.001897
C    -4.658798 0.985190 0.002056
C    -5.722737 1.883771 0.002368
S    -5.280237 -0.665811 0.001110
H    -7.924123 1.820935 0.002210
H    -5.604315 2.956680 0.002969
C    -6.990426 1.274195 0.002111
C    -6.938834 -0.110430 0.001696
C    0.088873 0.035486 0.002091
C    -0.952388 0.969546 0.001966
N    -0.504365 -1.225166 0.002275
C    -1.938350 -1.134963 0.002283
C    -1.210425 2.390492 0.001930
O    -0.482910 3.382393 0.001846
O    -2.664889 -2.122359 0.002476
C    -3.261042 3.793061 0.001598
C    0.126630 -2.532317 0.002376
H    -0.688329 -3.259133 0.002546
H    0.740845 -2.682853 0.895967
H    0.740667 -2.683090 -0.891298
H    -3.873148 3.948480 0.896213
H    -3.873070 3.947948 -0.893163
H    -2.441124 4.513628 0.001437
N    -2.641027 2.482220 0.001999
C    -2.197497 0.288945 0.002055
C    -3.240123 1.217522 0.002113
C    4.030597 0.325765 0.002130
C    3.460739 1.590807 0.001984
S    2.775173 -0.899661 0.001808
H    1.438621 2.481063 0.002121
H    4.061634 2.490372 0.001862
C    2.055171 1.587335 0.002006
C    1.496462 0.312816 0.002057
C    8.292272 -0.805498 0.001298
C    7.866496 0.559938 -0.004138
C    7.244962 -1.724969 0.010162
N    6.416893 2.279988 -0.016254
N    7.689626 2.651550 -0.028286
N    8.604412 1.692821 -0.017084
C    8.065090 4.055190 0.023176
H    7.473654 -2.786781 0.017650
H    5.155420 -2.166146 0.018594
H    7.293342 4.633354 -0.484940
H    8.147802 4.383920 1.063690
H    9.026832 4.169153 -0.476887
C    5.883827 -1.360292 0.010718
C    6.487660 0.930755 -0.003569
C    5.435858 -0.039685 0.002539
C    11.855615 -2.472407 -0.003897
C    12.040832 -1.116718 -0.001340
S    10.174408 -2.889109 -0.004239
H    10.752954 0.690339 0.002495
H    13.019007 -0.648038 -0.000745
C    10.818521 -0.389636 0.000517
C    9.695287 -1.193500 -0.000455
H    12.603666 -3.253886 -0.005856
