71
DPPBTZ-torsion-4-10
C    -8.525253 0.497773 0.107887
C    -9.484471 -0.551053 -0.068113
C    -9.074005 1.752253 0.366218
N    -11.542759 -1.467383 -0.179980
N    -10.555223 -2.331082 -0.370196
N    -9.311077 -1.867391 -0.323876
C    -10.822681 -3.724294 -0.689098
H    -8.409460 2.599730 0.509044
H    -10.803340 3.005213 0.660518
H    -11.806649 -3.975945 -0.294613
H    -10.049794 -4.339509 -0.227397
H    -10.808605 -3.869689 -1.773568
C    -10.469410 1.992291 0.454848
C    -10.886436 -0.301353 0.022284
C    -11.398139 0.987092 0.289105
H    -12.466150 1.163815 0.356250
C    -4.567761 0.486223 -0.007431
C    -5.021551 -0.805248 -0.251698
S    -5.938820 1.563054 0.246541
H    -6.950635 -1.855789 -0.405643
H    -4.336463 -1.627141 -0.435445
C    -6.423412 -0.926369 -0.235697
C    -7.090746 0.260679 0.019796
C    0.222290 0.005708 -0.251503
C    -0.888844 0.826985 -0.049127
N    -0.265475 -1.276234 -0.494737
C    -1.700350 -1.312526 -0.455617
C    -1.261729 2.193140 0.237244
O    -0.619715 3.224188 0.427552
O    -2.340364 -2.345354 -0.642078
C    -3.431737 3.381036 0.541947
C    0.473206 -2.498148 -0.757259
H    -0.276064 -3.282718 -0.880082
H    1.130943 -2.757271 0.078538
H    1.064865 -2.421603 -1.675164
H    -4.030216 3.297466 1.454758
H    -4.082008 3.651847 -0.296021
H    -2.680122 4.161293 0.677582
N    -2.695751 2.159033 0.272784
C    -2.074379 0.053207 -0.168099
C    -3.186004 0.876151 0.030084
C    4.119802 0.627881 -0.288629
C    3.466405 1.803286 0.007380
S    2.978384 -0.672524 -0.506763
H    1.375043 2.500408 0.249374
H    3.996273 2.729540 0.200776
C    2.059009 1.683171 0.041672
C    1.607562 0.395433 -0.216516
C    8.490189 0.034890 -0.439731
C    7.705620 -0.402218 0.674253
C    7.758072 0.640170 -1.456757
N    5.828160 -0.730529 1.879182
N    6.931012 -1.173008 2.466749
N    8.080359 -1.012047 1.822139
C    6.893157 -1.746487 3.802461
H    8.277844 1.005565 -2.337803
H    5.866566 1.298738 -2.255343
H    5.897933 -2.160171 3.962431
H    7.653018 -2.525948 3.865198
H    7.097280 -0.972384 4.548446
C    6.352263 0.812665 -1.414316
C    6.290289 -0.226789 0.713178
C    5.574030 0.385662 -0.351145
C    12.353278 -0.153438 -1.174085
C    12.146015 -0.707391 0.059333
S    10.872001 0.389036 -1.889596
H    10.408287 -1.093672 1.385589
H    12.943492 -1.108593 0.675397
C    10.776871 -0.701200 0.446945
C    9.937710 -0.140223 -0.494046
H    13.285715 -0.030205 -1.708595
