71
DPPBTZ-torsion-4-21
C    -8.520114 0.532967 -0.088975
C    -9.470135 -0.526866 0.070723
C    -9.080536 1.790659 -0.303281
N    -11.521013 -1.457343 0.200709
N    -10.525520 -2.317993 0.361144
N    -9.284883 -1.847502 0.293801
C    -10.777895 -3.739453 0.534156
H    -8.423435 2.645534 -0.436093
H    -10.821885 3.040826 -0.530686
H    -11.778089 -3.854424 0.950733
H    -10.025704 -4.144543 1.211754
H    -10.716134 -4.251108 -0.431152
C    -10.478626 2.024639 -0.359328
C    -10.874902 -0.283253 0.012776
C    -11.398619 1.009785 -0.203877
H    -12.468665 1.182118 -0.244953
C    -4.561249 0.544173 -0.033911
C    -5.003384 -0.759091 0.166644
S    -5.942945 1.620801 -0.224346
H    -6.923117 -1.827830 0.308953
H    -4.310349 -1.582819 0.307305
C    -6.404363 -0.888960 0.167220
C    -7.083130 0.302582 -0.031656
C    0.236293 0.084648 0.109696
C    -0.884757 0.907351 -0.037686
N    -0.241997 -1.209769 0.308287
C    -1.675892 -1.252431 0.293616
C    -1.270765 2.281491 -0.262611
O    -0.638230 3.324103 -0.420659
O    -2.308112 -2.295214 0.449316
C    -3.452318 3.466477 -0.483085
C    0.506820 -2.436159 0.515688
H    -0.236884 -3.227102 0.631373
H    1.119617 -2.384569 1.421313
H    1.146262 -2.667005 -0.342280
H    -4.090374 3.698172 0.375742
H    -4.065217 3.416334 -1.388740
H    -2.707821 4.256697 -0.598712
N    -2.704650 2.239393 -0.276426
C    -2.062583 0.122243 0.069803
C    -3.183251 0.944777 -0.077507
C    4.129404 0.724472 0.077285
C    3.451733 1.914657 -0.142022
S    2.995349 -0.593428 0.253433
H    1.359385 2.610045 -0.296240
H    3.964038 2.853439 -0.320336
C    2.052641 1.789377 -0.139506
C    1.614840 0.484156 0.070206
C    8.511498 0.278218 0.163093
C    7.655383 -0.798443 -0.229081
C    7.833477 1.439167 0.531377
N    5.707044 -1.840864 -0.661843
N    6.777691 -2.591748 -0.880017
N    7.964439 -2.047921 -0.644153
C    6.653031 -3.980662 -1.291385
H    8.405172 2.303927 0.855941
H    5.999562 2.505025 0.849565
H    5.725090 -4.085024 -1.853194
H    7.512772 -4.232836 -1.912394
H    6.629313 -4.631963 -0.412270
C    6.428040 1.563159 0.521507
C    6.234424 -0.670393 -0.242537
C    5.571730 0.534141 0.135625
C    12.425833 0.586439 0.416498
C    12.144505 -0.680652 -0.016245
S    10.983592 1.511972 0.668989
H    10.324710 -1.863064 -0.480376
H    12.907503 -1.420418 -0.233196
C    10.749558 -0.924002 -0.151008
C    9.963105 0.161660 0.180476
H    13.392486 1.034946 0.602827
