587

C           -89.04057   0.41759     0.00067     
C           -89.82897   1.54191     0.00303     
S           -90.03789   -1.05893    -0.00246    
C           -95.9409    1.38215     0.00267     
C           -95.30943   0.11767     -0.0        
C           -96.06077   -1.06524    -0.00247    
C           -97.44623   -0.96418    -0.00223    
C           -98.07761   0.30026     0.00044     
C           -97.32634   1.48316     0.00291     
C           -98.47922   -2.09113    -0.00458    
C           -99.78747   -1.29949    -0.00288    
C           -99.52691   0.09825     5e-05       
C           -94.90793   2.50907     0.00503     
C           -93.59965   1.71746     0.00336     
C           -93.86033   0.31964     0.00041     
C           -101.08198  -1.77923    -0.00385    
C           -102.15279  -0.85734    -0.00188    
C           -101.86952  0.53433     0.00103     
C           -100.56389  1.02888     0.00204     
C           -92.3053    2.19723     0.00438     
C           -91.23406   1.27533     0.00244     
C           -91.51772   -0.11669    -0.0005     
C           -92.82316   -0.61103    -0.00155    
C           -98.35262   -2.96655    -1.27172    
C           -98.35255   -2.97188    1.25886     
C           -95.03457   3.3898      -1.25842    
C           -95.03455   3.3845      1.27217     
H           -97.81804   2.45349     0.00496     
H           -95.56908   -2.03557    -0.00453    
H           -92.09472   3.26419     0.00663     
H           -93.01996   -1.67942    -0.00381    
H           -101.29263  -2.84619    -0.00608    
H           -100.36708  2.09726     0.00428     
H           -98.00689   -3.80056    -0.66099    
H           -98.69834   -2.13253    -1.88246    
C           -98.22736   -3.83272    -2.52548    
H           -97.32819   -3.22138    0.98223     
H           -99.37691   -2.72237    1.53549     
C           -98.22722   -3.84332    2.50895     
H           -94.01017   3.13383     1.54771     
H           -96.05892   3.63517     0.99663     
C           -95.15982   4.25067     2.52592     
H           -94.68886   2.55835     -1.87266    
H           -95.38027   4.22125     -0.64419    
C           -95.15987   4.26123     -2.50853    
H           -103.97883  -2.12061    -0.00446    
H           -89.40975   2.53897     0.00515     
S           -103.34962  1.47633     0.00307     
C           -103.55891  -1.12364    -0.00238    
C           -104.34572  0.0         -0.0        
C           -84.64073   0.0         -0.0        
C           -85.26036   1.30481     0.0029      
C           -85.53204   -1.06314    -0.00246    
N           -84.61344   2.47344     0.00554     
N           -87.10533   2.73368     0.00595     
S           -85.74917   3.65862     0.00819     
H           -87.52532   -1.82904    -0.00435    
H           -85.14491   -2.07765    -0.0047     
C           -86.93695   -0.91636    -0.00223    
C           -86.71375   1.4566      0.00312     
C           -87.58938   0.30792     0.00049     
C           -98.10211   -4.69889    -3.77923    
C           -97.97685   -5.56507    -5.03298    
C           -97.85159   -6.43124    -6.28674    
C           -97.72634   -7.29741    -7.54049    
C           -97.60108   -8.16358    -8.79425    
C           -97.47583   -9.02975    -10.048     
C           -97.35057   -9.89592    -11.30175   
C           -97.22531   -10.7621    -12.55551   
C           -97.10005   -11.62827   -13.80926   
C           -96.9748    -12.49444   -15.06301   
C           -96.84954   -13.36061   -16.31677   
C           -96.72429   -14.22678   -17.57052   
C           -96.59903   -15.09295   -18.82428   
C           -96.47377   -15.95913   -20.07803   
C           -95.28517   5.13265     -3.75864    
C           -95.41046   6.00406     -5.00874    
C           -95.53576   6.87549     -6.25885    
C           -95.66106   7.74691     -7.50896    
C           -95.78636   8.61833     -8.75906    
C           -95.91165   9.48975     -10.00917   
C           -96.03695   10.36118    -11.25927   
C           -96.16225   11.2326     -12.50938   
C           -96.28755   12.10403    -13.75948   
C           -96.41285   12.97544    -15.00959   
C           -96.53815   13.84687    -16.25969   
C           -96.66344   14.71829    -17.50981   
C           -96.78874   15.5897     -18.75991   
C           -96.91404   16.46113    -20.01001   
C           -98.1019    -4.71477    3.75903     
C           -97.97656   -5.5862     5.00912     
C           -97.85124   -6.45765    6.25921     
C           -97.72592   -7.32909    7.50929     
C           -97.60059   -8.20054    8.75939     
C           -97.47526   -9.07198    10.00947    
C           -97.34994   -9.94343    11.25956    
C           -97.22461   -10.81487   12.50964    
C           -97.09928   -11.68632   13.75974    
C           -96.97396   -12.55777   15.00982    
C           -96.84863   -13.42921   16.25991    
C           -96.72331   -14.30066   17.51       
C           -96.59797   -15.17209   18.76009    
C           -96.47265   -16.04354   20.01017    
C           -95.2851    5.11685     3.77967     
C           -95.41038   5.98303     5.03342     
C           -95.53565   6.8492      6.28716     
C           -95.66093   7.71538     7.54091     
C           -95.78621   8.58156     8.79466     
C           -95.91148   9.44773     10.04841    
C           -96.03676   10.31391    11.30216    
C           -96.16204   11.18009    12.55591    
C           -96.28731   12.04626    13.80965    
C           -96.41259   12.91244    15.0634     
C           -96.53787   13.77862    16.31715    
C           -96.66314   14.64479    17.5709     
C           -96.78842   15.51097    18.82465    
C           -96.91369   16.37715    20.0784     
C           -67.88039   0.41759     0.00042     
C           -68.66879   1.54191     0.00209     
S           -68.87771   -1.05893    -0.00182    
C           -74.78072   1.38215     0.00183     
C           -74.14925   0.11767     -8e-05      
C           -74.90058   -1.06524    -0.00183    
C           -76.28605   -0.96418    -0.00165    
C           -76.91743   0.30026     0.00026     
C           -76.16616   1.48316     0.00201     
C           -77.31903   -2.09113    -0.00331    
C           -78.62728   -1.29949    -0.00209    
C           -78.36672   0.09825     -1e-05      
C           -73.74775   2.50907     0.00351     
C           -72.43947   1.71746     0.00231     
C           -72.70015   0.31964     0.00022     
C           -79.92179   -1.77923    -0.00277    
C           -80.9926    -0.85735    -0.00136    
C           -80.70934   0.53433     0.00071     
C           -79.4037    1.02888     0.00141     
C           -71.14511   2.19723     0.00304     
C           -70.07388   1.27533     0.00166     
C           -70.35754   -0.11669    -0.00043    
C           -71.66298   -0.61103    -0.00118    
C           -77.19244   -2.96732    -1.26992    
C           -77.19237   -2.97111    1.26066     
C           -73.87439   3.38903     -1.26048    
C           -73.87436   3.38527     1.27011     
H           -76.65785   2.45349     0.00347     
H           -74.4089    -2.03557    -0.00329    
H           -70.93453   3.26419     0.00465     
H           -71.85977   -1.67942    -0.00279    
H           -80.13244   -2.84619    -0.00435    
H           -79.2069    2.09726     0.003       
H           -76.84671   -3.80097    -0.65869    
H           -77.53816   -2.13367    -1.88116    
C           -77.06718   -3.83426    -2.52315    
H           -76.168     -3.22078    0.98419     
H           -78.21673   -2.72143    1.53714     
C           -77.06703   -3.84179    2.51128     
H           -72.84999   3.13477     1.5458      
H           -74.89874   3.63577     0.99442     
C           -73.99964   4.25221     2.52334     
H           -73.52868   2.55722     -1.87422    
H           -74.22009   4.22086     -0.64675    
C           -73.99969   4.2597      -2.51111    
H           -82.81865   -2.12061    -0.00317    
H           -68.24956   2.53898     0.00361     
S           -82.18944   1.47633     0.00217     
C           -82.39873   -1.12365    -0.0017     
C           -83.18553   0.0         -0.0        
C           -63.48055   0.0         -0.0        
C           -64.10018   1.30481     0.00211     
C           -64.37186   -1.06315    -0.00181    
N           -63.45326   2.47344     0.00404     
N           -65.94515   2.73368     0.00429     
S           -64.58899   3.65862     0.00597     
H           -66.36514   -1.82904    -0.00324    
H           -63.98473   -2.07765    -0.00344    
C           -65.77676   -0.91636    -0.00167    
C           -65.55356   1.4566      0.00224     
C           -66.4292    0.30792     0.0003      
C           -76.94192   -4.70119    -3.77638    
C           -76.81666   -5.56812    -5.0296     
C           -76.69141   -6.43506    -6.28283    
C           -76.56616   -7.30199    -7.53606    
C           -76.4409    -8.16892    -8.78929    
C           -76.31564   -9.03585    -10.04251   
C           -76.19039   -9.90279    -11.29574   
C           -76.06513   -10.76972   -12.54897   
C           -75.93987   -11.63666   -13.80219   
C           -75.81461   -12.50359   -15.05542   
C           -75.68935   -13.37052   -16.30865   
C           -75.56411   -14.23745   -17.56188   
C           -75.43885   -15.10439   -18.8151    
C           -75.31359   -15.97132   -20.06833   
C           -74.12498   5.13036     -3.76176    
C           -74.25028   6.00102     -5.01239    
C           -74.37558   6.87169     -6.26302    
C           -74.50088   7.74235     -7.51367    
C           -74.62618   8.61301     -8.76429    
C           -74.75147   9.48367     -10.01493   
C           -74.87677   10.35434    -11.26557   
C           -75.00207   11.22499    -12.5162    
C           -75.12737   12.09566    -13.76684   
C           -75.25266   12.96632    -15.01747   
C           -75.37796   13.83699    -16.2681    
C           -75.50326   14.70765    -17.51874   
C           -75.62855   15.5783     -18.76938   
C           -75.75385   16.44897    -20.02001   
C           -76.94171   -4.71248    3.7619      
C           -76.81638   -5.58316    5.01251     
C           -76.69106   -6.45385    6.26313     
C           -76.56573   -7.32453    7.51375     
C           -76.44041   -8.19521    8.76437     
C           -76.31508   -9.0659     10.01498    
C           -76.18975   -9.93658    11.2656     
C           -76.06443   -10.80727   12.51621    
C           -75.9391    -11.67795   13.76684    
C           -75.81378   -12.54864   15.01745    
C           -75.68844   -13.41932   16.26807    
C           -75.56312   -14.29001   17.51868    
C           -75.43779   -15.16069   18.7693     
C           -75.31247   -16.03138   20.01992    
C           -74.12492   5.11915     3.77656     
C           -74.25019   5.98608     5.02978     
C           -74.37547   6.85302     6.283       
C           -74.50075   7.71996     7.53622     
C           -74.62602   8.5869      8.78945     
C           -74.7513    9.45384     10.04267    
C           -74.87658   10.32078    11.29589    
C           -75.00185   11.18771    12.54911    
C           -75.12713   12.05465    13.80233    
C           -75.25241   12.92159    15.05555    
C           -75.37768   13.78853    16.30878    
C           -75.50296   14.65547    17.562      
C           -75.62823   15.52241    18.81522    
C           -75.75351   16.38934    20.06844    
C           -46.7202    -0.41759    -0.00042    
C           -47.5086    -1.54191    -0.00209    
S           -47.71753   1.05893     0.00182     
C           -53.62053   -1.38215    -0.00183    
C           -52.98906   -0.11767    8e-05       
C           -53.7404    1.06524     0.00183     
C           -55.12586   0.96418     0.00165     
C           -55.75725   -0.30026    -0.00026    
C           -55.00598   -1.48316    -0.00201    
C           -56.15885   2.09113     0.00331     
C           -57.4671    1.29949     0.00209     
C           -57.20654   -0.09825    1e-05       
C           -52.58757   -2.50907    -0.00351    
C           -51.27928   -1.71746    -0.00231    
C           -51.53996   -0.31964    -0.00022    
C           -58.76161   1.77923     0.00277     
C           -59.83242   0.85735     0.00136     
C           -59.54915   -0.53433    -0.00071    
C           -58.24352   -1.02888    -0.00141    
C           -49.98493   -2.19723    -0.00304    
C           -48.91369   -1.27533    -0.00166    
C           -49.19736   0.11669     0.00043     
C           -50.50279   0.61103     0.00118     
C           -56.03225   2.96732     1.26992     
C           -56.03218   2.97111     -1.26066    
C           -52.7142    -3.38903    1.26048     
C           -52.71418   -3.38527    -1.27011    
H           -55.49767   -2.45349    -0.00347    
H           -53.24872   2.03557     0.00329     
H           -49.77435   -3.26419    -0.00465    
H           -50.69959   1.67942     0.00279     
H           -58.97226   2.84619     0.00435     
H           -58.04672   -2.09726    -0.003      
H           -55.68652   3.80097     0.65869     
H           -56.37797   2.13367     1.88116     
C           -55.907     3.83426     2.52315     
H           -55.00782   3.22078     -0.98419    
H           -57.05654   2.72143     -1.53714    
C           -55.90685   3.84179     -2.51128    
H           -51.68981   -3.13477    -1.5458     
H           -53.73855   -3.63577    -0.99442    
C           -52.83946   -4.25221    -2.52334    
H           -52.3685    -2.55722    1.87422     
H           -53.05991   -4.22086    0.64675     
C           -52.8395    -4.2597     2.51111     
H           -61.65846   2.12061     0.00317     
H           -47.08938   -2.53898    -0.00361    
S           -61.02926   -1.47633    -0.00217    
C           -61.23854   1.12365     0.0017      
C           -62.02535   0.0         -0.0        
C           -42.32037   0.0         -0.0        
C           -42.94      -1.30481    -0.00211    
C           -43.21167   1.06315     0.00181     
N           -42.29307   -2.47344    -0.00404    
N           -44.78497   -2.73368    -0.00429    
S           -43.4288    -3.65862    -0.00597    
H           -45.20496   1.82904     0.00324     
H           -42.82455   2.07765     0.00344     
C           -44.61658   0.91636     0.00167     
C           -44.39338   -1.4566     -0.00224    
C           -45.26902   -0.30792    -0.0003     
C           -55.78174   4.70119     3.77638     
C           -55.65648   5.56812     5.0296      
C           -55.53122   6.43506     6.28283     
C           -55.40597   7.30199     7.53606     
C           -55.28072   8.16892     8.78929     
C           -55.15546   9.03585     10.04251    
C           -55.0302    9.90279     11.29574    
C           -54.90494   10.76972    12.54897    
C           -54.77969   11.63666    13.80219    
C           -54.65443   12.50359    15.05542    
C           -54.52917   13.37052    16.30865    
C           -54.40392   14.23745    17.56188    
C           -54.27867   15.10439    18.8151     
C           -54.15341   15.97132    20.06833    
C           -52.9648    -5.13036    3.76176     
C           -53.09009   -6.00102    5.01239     
C           -53.21539   -6.87169    6.26302     
C           -53.34069   -7.74235    7.51367     
C           -53.466     -8.61301    8.76429     
C           -53.59128   -9.48367    10.01493    
C           -53.71658   -10.35434   11.26557    
C           -53.84189   -11.22499   12.5162     
C           -53.96719   -12.09566   13.76684    
C           -54.09248   -12.96632   15.01747    
C           -54.21778   -13.83699   16.2681     
C           -54.34308   -14.70765   17.51874    
C           -54.46837   -15.5783    18.76938    
C           -54.59367   -16.44897   20.02001    
C           -55.78153   4.71248     -3.7619     
C           -55.6562    5.58316     -5.01251    
C           -55.53087   6.45385     -6.26313    
C           -55.40555   7.32453     -7.51375    
C           -55.28022   8.19521     -8.76437    
C           -55.1549    9.0659      -10.01498   
C           -55.02957   9.93658     -11.2656    
C           -54.90424   10.80727    -12.51621   
C           -54.77891   11.67795    -13.76684   
C           -54.65359   12.54864    -15.01745   
C           -54.52826   13.41932    -16.26807   
C           -54.40294   14.29001    -17.51868   
C           -54.27761   15.16069    -18.7693    
C           -54.15229   16.03138    -20.01992   
C           -52.96473   -5.11915    -3.77656    
C           -53.09001   -5.98608    -5.02978    
C           -53.21529   -6.85302    -6.283      
C           -53.34056   -7.71996    -7.53622    
C           -53.46584   -8.5869     -8.78945    
C           -53.59112   -9.45384    -10.04267   
C           -53.71639   -10.32078   -11.29589   
C           -53.84167   -11.18771   -12.54911   
C           -53.96694   -12.05465   -13.80233   
C           -54.09222   -12.92159   -15.05555   
C           -54.2175    -13.78853   -16.30878   
C           -54.34277   -14.65547   -17.562     
C           -54.46805   -15.52241   -18.81522   
C           -54.59333   -16.38934   -20.06844   
C           -25.56002   0.41759     0.00042     
C           -26.34842   1.54191     0.00209     
S           -26.55734   -1.05893    -0.00182    
C           -32.46035   1.38215     0.00183     
C           -31.82888   0.11767     -8e-05      
C           -32.58022   -1.06524    -0.00183    
C           -33.96568   -0.96418    -0.00165    
C           -34.59706   0.30026     0.00026     
C           -33.84579   1.48316     0.00201     
C           -34.99867   -2.09113    -0.00331    
C           -36.30692   -1.29949    -0.00209    
C           -36.04636   0.09825     -1e-05      
C           -31.42738   2.50907     0.00351     
C           -30.1191    1.71746     0.00231     
C           -30.37978   0.31964     0.00022     
C           -37.60143   -1.77923    -0.00277    
C           -38.67224   -0.85735    -0.00136    
C           -38.38897   0.53433     0.00071     
C           -37.08333   1.02888     0.00141     
C           -28.82475   2.19723     0.00304     
C           -27.75351   1.27533     0.00166     
C           -28.03717   -0.11669    -0.00043    
C           -29.34261   -0.61103    -0.00118    
C           -34.87207   -2.96732    -1.26992    
C           -34.872     -2.97111    1.26066     
C           -31.55402   3.38903     -1.26048    
C           -31.554     3.38527     1.27011     
H           -34.33748   2.45349     0.00347     
H           -32.08853   -2.03557    -0.00329    
H           -28.61417   3.26419     0.00465     
H           -29.53941   -1.67942    -0.00279    
H           -37.81208   -2.84619    -0.00435    
H           -36.88653   2.09726     0.003       
H           -34.52634   -3.80097    -0.65869    
H           -35.21779   -2.13367    -1.88116    
C           -34.74681   -3.83426    -2.52315    
H           -33.84764   -3.22078    0.98419     
H           -35.89636   -2.72143    1.53714     
C           -34.74667   -3.84179    2.51128     
H           -30.52962   3.13477     1.5458      
H           -32.57837   3.63577     0.99442     
C           -31.67927   4.25221     2.52334     
H           -31.20831   2.55722     -1.87422    
H           -31.89972   4.22086     -0.64675    
C           -31.67932   4.2597      -2.51111    
H           -40.49828   -2.12061    -0.00317    
H           -25.9292    2.53898     0.00361     
S           -39.86907   1.47633     0.00217     
C           -40.07836   -1.12365    -0.0017     
C           -40.86516   0.0         -0.0        
C           -21.16018   0.0         -0.0        
C           -21.77981   1.30481     0.00211     
C           -22.05149   -1.06315    -0.00181    
N           -21.13289   2.47344     0.00404     
N           -23.62478   2.73368     0.00429     
S           -22.26862   3.65862     0.00597     
H           -24.04477   -1.82904    -0.00324    
H           -21.66436   -2.07765    -0.00344    
C           -23.45639   -0.91636    -0.00167    
C           -23.23319   1.4566      0.00224     
C           -24.10883   0.30792     0.0003      
C           -34.62155   -4.70119    -3.77638    
C           -34.4963    -5.56812    -5.0296     
C           -34.37104   -6.43506    -6.28283    
C           -34.24579   -7.30199    -7.53606    
C           -34.12053   -8.16892    -8.78929    
C           -33.99528   -9.03585    -10.04251   
C           -33.87002   -9.90279    -11.29574   
C           -33.74476   -10.76972   -12.54897   
C           -33.6195    -11.63666   -13.80219   
C           -33.49425   -12.50359   -15.05542   
C           -33.36899   -13.37052   -16.30865   
C           -33.24374   -14.23745   -17.56188   
C           -33.11848   -15.10439   -18.8151    
C           -32.99322   -15.97132   -20.06833   
C           -31.80462   5.13036     -3.76176    
C           -31.92991   6.00102     -5.01239    
C           -32.05521   6.87169     -6.26302    
C           -32.18051   7.74235     -7.51367    
C           -32.30581   8.61301     -8.76429    
C           -32.4311    9.48367     -10.01493   
C           -32.5564    10.35434    -11.26557   
C           -32.6817    11.22499    -12.5162    
C           -32.807     12.09566    -13.76684   
C           -32.9323    12.96632    -15.01747   
C           -33.05759   13.83699    -16.2681    
C           -33.18289   14.70765    -17.51874   
C           -33.30819   15.5783     -18.76938   
C           -33.43349   16.44897    -20.02001   
C           -34.62134   -4.71248    3.7619      
C           -34.49601   -5.58316    5.01251     
C           -34.37069   -6.45385    6.26313     
C           -34.24537   -7.32453    7.51375     
C           -34.12004   -8.19521    8.76437     
C           -33.99471   -9.0659     10.01498    
C           -33.86938   -9.93658    11.2656     
C           -33.74406   -10.80727   12.51621    
C           -33.61873   -11.67795   13.76684    
C           -33.49341   -12.54864   15.01745    
C           -33.36808   -13.41932   16.26807    
C           -33.24276   -14.29001   17.51868    
C           -33.11742   -15.16069   18.7693     
C           -32.9921    -16.03138   20.01992    
C           -31.80455   5.11915     3.77656     
C           -31.92983   5.98608     5.02978     
C           -32.0551    6.85302     6.283       
C           -32.18038   7.71996     7.53622     
C           -32.30566   8.5869      8.78945     
C           -32.43093   9.45384     10.04267    
C           -32.55621   10.32078    11.29589    
C           -32.68148   11.18771    12.54911    
C           -32.80676   12.05465    13.80233    
C           -32.93204   12.92159    15.05555    
C           -33.05731   13.78853    16.30878    
C           -33.18259   14.65547    17.562      
C           -33.30787   15.52241    18.81522    
C           -33.43314   16.38934    20.06844    
C           -4.39984    -0.41759    -0.00042    
C           -5.18823    -1.54191    -0.00209    
S           -5.39716    1.05893     0.00182     
C           -11.30016   -1.38215    -0.00183    
C           -10.66869   -0.11767    8e-05       
C           -11.42003   1.06524     0.00183     
C           -12.8055    0.96418     0.00165     
C           -13.43688   -0.30026    -0.00026    
C           -12.68561   -1.48316    -0.00201    
C           -13.83848   2.09113     0.00331     
C           -15.14673   1.29949     0.00209     
C           -14.88617   -0.09825    1e-05       
C           -10.2672    -2.50907    -0.00351    
C           -8.95892    -1.71746    -0.00231    
C           -9.2196     -0.31964    -0.00022    
C           -16.44124   1.77923     0.00277     
C           -17.51205   0.85735     0.00136     
C           -17.22879   -0.53433    -0.00071    
C           -15.92315   -1.02888    -0.00141    
C           -7.66456    -2.19723    -0.00304    
C           -6.59333    -1.27533    -0.00166    
C           -6.87699    0.11669     0.00043     
C           -8.18243    0.61103     0.00118     
C           -13.71189   2.96732     1.26992     
C           -13.71181   2.97111     -1.26066    
C           -10.39384   -3.38903    1.26048     
C           -10.39381   -3.38527    -1.27011    
H           -13.1773    -2.45349    -0.00347    
H           -10.92835   2.03557     0.00329     
H           -7.45398    -3.26419    -0.00465    
H           -8.37922    1.67942     0.00279     
H           -16.65189   2.84619     0.00435     
H           -15.72635   -2.09726    -0.003      
H           -13.36616   3.80097     0.65869     
H           -14.0576    2.13367     1.88116     
C           -13.58663   3.83426     2.52315     
H           -12.68745   3.22078     -0.98419    
H           -14.73618   2.72143     -1.53714    
C           -13.58648   3.84179     -2.51128    
H           -9.36944    -3.13477    -1.5458     
H           -11.41819   -3.63577    -0.99442    
C           -10.51909   -4.25221    -2.52334    
H           -10.04813   -2.55722    1.87422     
H           -10.73954   -4.22086    0.64675     
C           -10.51914   -4.2597     2.51111     
H           -19.3381    2.12061     0.00317     
H           -4.76901    -2.53898    -0.00361    
S           -18.70889   -1.47633    -0.00217    
C           -18.91818   1.12365     0.0017      
C           -19.70498   0.0         -0.0        
C           0.0         0.0         0.0         
C           -0.61963    -1.30481    -0.00211    
C           -0.8913     1.06315     0.00181     
N           0.0273      -2.47344    -0.00404    
N           -2.4646     -2.73368    -0.00429    
S           -1.10843    -3.65862    -0.00597    
H           -2.88459    1.82904     0.00324     
H           -0.50418    2.07765     0.00344     
C           -2.29621    0.91636     0.00167     
C           -2.07301    -1.4566     -0.00224    
C           -2.94865    -0.30792    -0.0003     
C           -13.46137   4.70119     3.77638     
C           -13.33611   5.56812     5.0296      
C           -13.21086   6.43506     6.28283     
C           -13.08561   7.30199     7.53606     
C           -12.96035   8.16892     8.78929     
C           -12.83509   9.03585     10.04251    
C           -12.70983   9.90279     11.29574    
C           -12.58458   10.76972    12.54897    
C           -12.45932   11.63666    13.80219    
C           -12.33406   12.50359    15.05542    
C           -12.2088    13.37052    16.30865    
C           -12.08356   14.23745    17.56188    
C           -11.9583    15.10439    18.8151     
C           -11.83304   15.97132    20.06833    
C           -10.64443   -5.13036    3.76176     
C           -10.76973   -6.00102    5.01239     
C           -10.89503   -6.87169    6.26302     
C           -11.02033   -7.74235    7.51367     
C           -11.14563   -8.61301    8.76429     
C           -11.27092   -9.48367    10.01493    
C           -11.39622   -10.35434   11.26557    
C           -11.52152   -11.22499   12.5162     
C           -11.64682   -12.09566   13.76684    
C           -11.77211   -12.96632   15.01747    
C           -11.89741   -13.83699   16.2681     
C           -12.02271   -14.70765   17.51874    
C           -12.148     -15.5783    18.76938    
C           -12.2733    -16.44897   20.02001    
C           -13.46116   4.71248     -3.7619     
C           -13.33583   5.58316     -5.01251    
C           -13.21051   6.45385     -6.26313    
C           -13.08518   7.32453     -7.51375    
C           -12.95985   8.19521     -8.76437    
C           -12.83453   9.0659      -10.01498   
C           -12.7092    9.93658     -11.2656    
C           -12.58388   10.80727    -12.51621   
C           -12.45855   11.67795    -13.76684   
C           -12.33323   12.54864    -15.01745   
C           -12.20789   13.41932    -16.26807   
C           -12.08257   14.29001    -17.51868   
C           -11.95724   15.16069    -18.7693    
C           -11.83192   16.03138    -20.01992   
C           -10.64437   -5.11915    -3.77656    
C           -10.76964   -5.98608    -5.02978    
C           -10.89492   -6.85302    -6.283      
C           -11.0202    -7.71996    -7.53622    
C           -11.14547   -8.5869     -8.78945    
C           -11.27075   -9.45384    -10.04267   
C           -11.39602   -10.32078   -11.29589   
C           -11.5213    -11.18771   -12.54911   
C           -11.64658   -12.05465   -13.80233   
C           -11.77185   -12.92159   -15.05555   
C           -11.89713   -13.78853   -16.30878   
C           -12.02241   -14.65547   -17.562     
C           -12.14768   -15.52241   -18.81522   
C           -12.27296   -16.38934   -20.06844   
H           -105.43572  0.0         -0.0        
H           1.09        0.0         0.0         
