124
TIFBT-torsion-2-14
C    17.119497 -0.984043 0.077113
C    18.070830 0.010043 -0.371542
C    17.670751 -2.163198 0.554017
N    17.787063 1.217943 -0.869314
N    20.257795 0.753397 -0.755459
S    19.222794 1.940410 -1.219766
H    19.402608 -3.371695 1.004455
H    17.009770 -2.949756 0.905709
C    19.071199 -2.413988 0.613298
C    19.501284 -0.255558 -0.307032
C    19.994447 -1.491482 0.195650
H    21.063085 -1.670180 0.235535
C    0.402801 0.150213 0.129337
C    1.088819 -0.948395 0.579859
S    1.505374 1.428433 -0.403539
C    7.193192 -1.322711 0.546423
C    6.663808 -0.109743 0.050838
C    7.505890 0.911574 -0.408536
C    8.878575 0.701921 -0.364603
C    9.407888 -0.510957 0.131168
C    8.565765 -1.532390 0.590546
C    9.996728 1.648269 -0.801723
C    11.237922 0.811949 -0.488352
C    10.868064 -0.448060 0.056817
C    6.075041 -2.269461 0.983072
C    4.833576 -1.433417 0.669490
C    5.203240 -0.172301 0.125192
C    12.565612 1.142811 -0.671732
C    13.559966 0.206932 -0.308489
C    13.168025 -1.045595 0.234111
C    11.828010 -1.389044 0.423374
C    3.506477 -1.765188 0.852157
C    2.511653 -0.830786 0.485307
C    2.901457 0.425649 -0.052956
C    4.243886 0.768716 -0.238043
C    9.901890 1.971286 -2.309968
C    9.978024 2.957446 0.019179
C    6.094750 -3.578532 0.162139
C    6.169597 -2.592531 2.491285
H    8.978965 -2.463919 0.971160
H    7.092616 1.843023 -0.789146
H    3.214467 -2.727027 1.267862
H    4.523961 1.734489 -0.649470
H    12.859562 2.103691 -1.087732
H    11.547729 -2.352389 0.840055
H    8.976046 2.514439 -2.532426
H    10.743541 2.598951 -2.624968
H    9.914320 1.056364 -2.910784
H    10.044931 2.751191 1.092115
H    10.821013 3.600581 -0.258866
H    9.053558 3.517065 -0.164887
H    7.095597 -3.135301 2.714226
H    6.156495 -1.677587 3.092012
H    5.328084 -3.220555 2.806134
H    7.019441 -4.137845 0.346223
H    5.252060 -4.222286 0.439926
H    6.027962 -3.372136 -0.910789
H    15.478992 1.211603 -0.796511
H    0.590053 -1.820705 0.989288
S    14.568674 -2.034507 0.606303
C    14.982034 0.332540 -0.408477
C    15.677576 -0.764502 0.032368
C    -4.000388 0.424279 0.104914
C    -3.196443 1.581230 0.426688
C    -3.279524 -0.718765 -0.210353
N    -3.654803 2.791499 0.760280
N    -1.148195 2.662722 0.739250
S    -2.344877 3.746401 1.031471
H    -1.401077 -1.721475 -0.512034
H    -3.816029 -1.626020 -0.471773
C    -1.865300 -0.782208 -0.227587
C    -1.739936 1.509896 0.415530
C    -1.051073 0.293700 0.080718
C    -20.690262 -0.738927 -0.331530
C    -19.876848 -1.781967 -0.640341
S    -19.811000 0.710729 0.108737
C    -13.771610 -1.310693 -0.465313
C    -14.472792 -0.134617 -0.116216
C    -13.788955 1.035483 0.238134
C    -12.399625 1.011286 0.237924
C    -11.698472 -0.164786 -0.110924
C    -12.382591 -1.335214 -0.465396
C    -11.431638 2.143312 0.582145
C    -10.080899 1.454959 0.382234
C    -10.262708 0.104151 -0.023047
C    -14.739957 -2.442369 -0.810394
C    -16.090787 -1.753805 -0.610981
C    -15.909789 -0.404124 -0.204737
C    -8.815590 1.981904 0.545867
C    -7.694322 1.156308 0.303992
C    -7.899252 -0.190141 -0.099321
C    -9.175005 -0.731640 -0.267612
C    -17.356423 -2.281736 -0.776546
C    -18.477931 -1.459128 -0.535660
C    -18.274837 -0.112768 -0.130151
C    -16.997469 0.429246 0.039575
C    -11.612988 2.612981 2.043174
C    -11.601343 3.340233 -0.380499
C    -14.570851 -3.639548 0.152001
C    -14.557613 -2.911678 -2.271349
H    -11.837536 -2.237686 -0.733431
H    -14.334024 1.937977 0.505974
H    -17.502942 -3.313829 -1.087409
H    -16.862749 1.461615 0.350235
H    -8.665280 3.013617 0.855318
H    -9.311487 -1.764010 -0.577106
H    -12.609411 3.045681 2.190202
H    -10.872644 3.380201 2.297824
H    -11.495712 1.779348 2.742830
H    -11.475496 3.029255 -1.422446
H    -10.860948 4.119033 -0.164021
H    -12.597624 3.784935 -0.273880
H    -13.561293 -3.344814 -2.418102
H    -14.674195 -2.077742 -2.970754
H    -15.298130 -3.678527 -2.526829
H    -13.574696 -4.084761 0.045867
H    -15.311455 -4.418110 -0.064881
H    -14.697138 -3.328661 1.193925
H    -5.943115 2.461230 0.701226
H    -20.243685 -2.759394 -0.935953
S    -6.368697 -1.013818 -0.338588
C    -6.306162 1.485194 0.408519
C    -5.456423 0.451032 0.103735
H    -21.772296 -0.720469 -0.331957
