124
TIFBT-torsion-3-34
C    17.118501 -0.341726 -0.020013
C    17.907370 -1.548783 0.103206
C    17.843375 0.832879 -0.148561
N    17.442545 -2.795031 0.237801
N    19.956237 -2.677127 0.211144
S    18.751898 -3.786123 0.335368
H    19.740038 1.858166 -0.267860
H    17.309848 1.773726 -0.245603
C    19.266277 0.886358 -0.162214
C    19.362167 -1.484094 0.088167
C    20.038315 -0.239949 -0.047323
H    21.122145 -0.212753 -0.056331
C    0.409978 1.013852 -0.053184
C    1.266320 2.081294 -0.165235
S    1.313678 -0.514695 0.092666
C    7.356569 1.541365 -0.153237
C    6.647900 0.325037 -0.026904
C    7.324368 -0.896436 0.091918
C    8.713405 -0.882467 0.082537
C    9.422030 0.333815 -0.043864
C    8.745598 1.555274 -0.162798
C    9.674406 -2.065870 0.196422
C    11.029241 -1.361316 0.117652
C    10.856003 0.042906 -0.022705
C    6.395485 2.724800 -0.266319
C    5.040657 2.020287 -0.186434
C    5.214122 0.615913 -0.047152
C    12.291407 -1.918470 0.166525
C    13.417402 -1.069826 0.074735
C    13.221176 0.329815 -0.064932
C    11.948789 0.902343 -0.115371
C    3.778560 2.577519 -0.233243
C    2.652269 1.728875 -0.140400
C    2.849021 0.328726 -0.002625
C    4.121273 -0.243653 0.045802
C    9.500912 -2.802977 1.543549
C    9.486660 -3.057236 -0.974080
C    6.584286 3.716202 0.903953
C    6.567835 3.461807 -1.613651
H    9.296571 2.488176 -0.259703
H    6.773410 -1.829319 0.188968
H    3.634623 3.650267 -0.339298
H    4.251403 -1.316960 0.151986
H    12.435287 -2.991119 0.273604
H    11.818779 1.975554 -0.222685
H    8.502341 -3.249557 1.615195
H    10.237157 -3.609192 1.641061
H    9.630484 -2.118016 2.387488
H    9.606411 -2.555110 -1.939338
H    10.222405 -3.867733 -0.916380
H    8.487698 -3.507655 -0.944022
H    7.566366 3.908352 -1.686210
H    6.437500 2.776774 -2.457412
H    5.831497 4.268012 -1.710595
H    7.583225 4.166633 0.873012
H    5.848485 4.526699 0.846879
H    6.465369 3.214105 1.869328
H    15.161393 -2.438234 0.202435
H    0.909536 3.097671 -0.263304
S    14.756957 1.172898 -0.158233
C    14.804210 -1.422035 0.102222
C    15.659332 -0.355359 -0.009970
C    -4.003474 0.876358 -0.000731
C    -3.305384 2.134785 -0.106769
C    -3.184749 -0.239904 0.074575
N    -3.882458 3.335923 -0.199014
N    -1.377592 3.441868 -0.231682
S    -2.676259 4.444672 -0.300951
H    -1.241605 -1.126233 0.125580
H    -3.639687 -1.221524 0.167890
C    -1.772612 -0.181613 0.055569
C    -1.846429 2.195314 -0.126394
C    -1.045516 0.995983 -0.041228
C    -20.519111 -1.812502 0.089978
C    -19.620452 -2.793633 -0.183381
S    -19.767319 -0.264954 0.419208
C    -13.582813 -1.758137 -0.223116
C    -14.381039 -0.632124 0.079415
C    -13.799932 0.614440 0.345425
C    -12.414775 0.716848 0.304620
C    -11.616557 -0.409191 0.002433
C    -12.197912 -1.656044 -0.263828
C    -11.547550 1.950900 0.553889
C    -10.144149 1.377636 0.353169
C    -10.210094 -0.005948 0.031473
C    -14.450367 -2.991967 -0.473121
C    -15.853805 -2.418733 -0.272064
C    -15.788620 -1.036264 0.050441
C    -8.929570 2.026543 0.448153
C    -7.742665 1.293970 0.219797
C    -7.831751 -0.088495 -0.096201
C    -9.056024 -0.752367 -0.196388
C    -17.068768 -3.068791 -0.368101
C    -18.255328 -2.338901 -0.140426
C    -18.167873 -0.957784 0.180810
C    -16.942426 -0.292404 0.279919
C    -11.735431 2.488883 1.990306
C    -11.851254 3.067420 -0.470401
C    -14.146593 -4.109097 0.550432
C    -14.262178 -3.529047 -1.909811
H    -11.578375 -2.519516 -0.496108
H    -14.419500 1.477949 0.577417
H    -17.126698 -4.126715 -0.614579
H    -16.896281 0.764663 0.526764
H    -8.868322 3.084423 0.693020
H    -9.103663 -1.809880 -0.440577
H    -12.763687 2.837230 2.142172
H    -11.063232 3.334164 2.178106
H    -11.524268 1.712802 2.732821
H    -11.723147 2.707078 -1.496036
H    -11.180970 3.921950 -0.321721
H    -12.881477 3.425245 -0.359410
H    -13.233990 -3.877566 -2.061973
H    -14.473203 -2.752405 -2.651767
H    -14.934546 -4.374077 -2.098355
H    -13.116498 -4.467327 0.439228
H    -14.817117 -4.963439 0.401414
H    -14.274518 -3.749248 1.576276
H    -6.110712 2.774963 0.484660
H    -19.902328 -3.816388 -0.411070
S    -6.237896 -0.781267 -0.338438
C    -6.388345 1.752750 0.264005
C    -5.456401 0.782292 -0.005316
H    -21.597848 -1.892840 0.121740
