124
TIFBT-torsion-3-11
C    17.176647 0.088989 0.012319
C    18.027001 -1.056753 0.254331
C    17.839611 1.279883 -0.240419
N    17.627409 -2.304798 0.518978
N    20.131587 -2.061165 0.465215
S    18.986378 -3.211936 0.709905
H    19.680588 2.383649 -0.475691
H    17.258045 2.177192 -0.429859
C    19.257840 1.404782 -0.268057
C    19.476470 -0.919245 0.223960
C    20.087203 0.337464 -0.042719
H    21.168166 0.419292 -0.060960
C    0.421390 0.565250 -0.093525
C    1.220178 1.656753 -0.325186
S    1.402067 -0.888220 0.219231
C    7.330201 1.439697 -0.272207
C    6.685712 0.209678 -0.009418
C    7.424513 -0.954739 0.239473
C    8.810945 -0.870166 0.221256
C    9.455491 0.359861 -0.041753
C    8.716703 1.524275 -0.290384
C    9.832085 -1.982708 0.458742
C    11.148512 -1.222083 0.295672
C    10.902672 0.147388 0.003168
C    6.309136 2.552228 -0.510032
C    4.992673 1.791330 -0.348553
C    5.238625 0.421781 -0.055579
C    12.437924 -1.704655 0.398121
C    13.518308 -0.814272 0.207325
C    13.249719 0.549568 -0.083926
C    11.949330 1.046699 -0.189470
C    3.703400 2.273369 -0.452993
C    2.622937 1.382372 -0.264023
C    2.891663 0.018540 0.027870
C    4.192077 -0.477969 0.135643
C    9.696937 -2.575692 1.879395
C    9.695998 -3.104605 -0.595284
C    6.444044 3.673537 0.544785
C    6.445421 3.146048 -1.930221
H    9.218494 2.468077 -0.492154
H    6.922738 -1.898562 0.441205
H    3.503866 3.318776 -0.676652
H    4.377756 -1.524657 0.359544
H    12.637324 -2.750186 0.621363
H    11.763789 2.093503 -0.413028
H    8.722753 -3.062380 2.005163
H    10.473825 -3.327510 2.060366
H    9.790997 -1.796616 2.642537
H    9.789363 -2.705568 -1.610298
H    10.472872 -3.864835 -0.453711
H    8.721820 -3.600084 -0.510404
H    7.419714 3.632791 -2.054810
H    6.352080 2.367419 -2.693910
H    5.668728 3.898015 -2.111438
H    7.418317 4.169017 0.461161
H    5.667319 4.433859 0.402860
H    6.349705 3.273929 1.559480
H    15.330970 -2.068610 0.474303
H    0.810586 2.635576 -0.535752
S    14.739656 1.455300 -0.278313
C    14.921543 -1.089334 0.265332
C    15.720107 0.001249 0.031877
C    -3.965752 0.221157 -0.013626
C    -3.339378 1.481113 -0.294507
C    -3.111862 -0.840106 0.201280
N    -3.988436 2.619970 -0.555454
N    -1.487214 2.859480 -0.603277
S    -2.843263 3.765956 -0.811589
H    -1.119129 -1.613791 0.364549
H    -3.537492 -1.817086 0.410055
C    -1.697794 -0.715147 0.172813
C    -1.888647 1.615830 -0.322962
C    -1.033506 0.475550 -0.077346
C    -20.669846 -0.966198 0.166752
C    -19.981250 -0.243857 1.088115
S    -19.632406 -1.740903 -1.013238
C    -13.869641 0.168174 0.996168
C    -14.431412 -0.621361 -0.031831
C    -13.619467 -1.249166 -0.985119
C    -12.243654 -1.075857 -0.894419
C    -11.681875 -0.286599 0.133729
C    -12.493904 0.341442 1.086948
C    -11.154287 -1.648295 -1.801617
C    -9.892169 -1.079660 -1.151762
C    -10.225354 -0.285709 -0.020787
C    -14.959197 0.740928 1.903003
C    -16.221276 0.171115 1.253996
C    -15.888108 -0.622779 0.123436
C    -8.576449 -1.254478 -1.532928
C    -7.557911 -0.631248 -0.779459
C    -7.911804 0.162356 0.344189
C    -9.241370 0.341933 0.737653
C    -17.537107 0.345323 1.636354
C    -18.556434 -0.279114 0.885624
C    -18.201755 -1.068498 -0.240920
C    -16.872606 -1.249823 -0.634615
C    -11.313220 -1.147893 -3.254987
C    -11.154602 -3.193342 -1.773967
C    -14.959746 2.285964 1.873534
C    -14.799642 0.242358 3.356902
H    -12.055964 0.948364 1.876414
H    -14.057360 -1.855910 -1.774766
H    -17.799788 0.951593 2.500511
H    -16.621614 -1.857508 -1.499595
H    -8.312573 -1.860941 -2.396544
H    -9.493116 0.951627 1.600932
H    -12.253318 -1.508459 -3.688593
H    -10.491931 -1.513450 -3.882354
H    -11.314587 -0.054101 -3.297205
H    -11.041914 -3.569250 -0.752080
H    -10.330968 -3.591632 -2.377944
H    -12.092065 -3.588361 -2.182513
H    -13.859730 0.604057 3.789954
H    -14.797480 -0.851411 3.400452
H    -15.621034 0.608157 3.984001
H    -14.022439 2.681981 2.281463
H    -15.783589 2.684464 2.477065
H    -15.072841 2.660569 0.851239
H    -5.661593 -1.204637 -1.795955
H    -20.456305 0.304339 1.895061
S    -6.486080 0.838540 1.114102
C    -6.136753 -0.669909 -0.979919
C    -5.426350 0.041587 -0.056944
H    -21.741364 -1.100766 0.096940
