124
TIFBT-torsion-1-1
C    17.118548 -0.350228 0.062521
C    17.905507 -1.554910 -0.087810
C    17.843497 0.821408 0.213418
N    17.437948 -2.797050 -0.248286
N    19.952373 -2.682599 -0.228270
S    18.745861 -3.787074 -0.372412
H    19.741825 1.842337 0.347324
H    17.309412 1.758218 0.341697
C    19.266695 0.873569 0.221730
C    19.360182 -1.491832 -0.077071
C    20.037382 -0.250799 0.080983
H    21.121268 -0.224302 0.086724
C    0.412099 1.024245 0.024014
C    1.270196 2.095711 -0.012236
S    1.313796 -0.511641 0.076498
C    7.359707 1.548778 -0.000378
C    6.649316 0.327675 0.043016
C    7.324102 -0.899815 0.084105
C    8.713189 -0.886952 0.080902
C    9.423512 0.334106 0.037330
C    8.748782 1.561591 -0.003559
C    9.672564 -2.076518 0.119991
C    11.028425 -1.370069 0.091952
C    10.857110 0.040604 0.044103
C    6.400285 2.738289 -0.039953
C    5.044431 2.031737 -0.013340
C    5.215941 0.621031 0.035015
C    12.289812 -1.930887 0.107471
C    13.417071 -1.079575 0.074755
C    13.222780 0.326679 0.029288
C    11.951066 0.902841 0.012374
C    3.783099 2.592335 -0.031070
C    2.655561 1.740758 -0.000780
C    2.850377 0.334360 0.046980
C    4.121845 -0.241452 0.065717
C    9.493684 -2.899896 1.415432
C    9.487370 -2.988700 -1.113570
C    6.584321 3.649998 1.194137
C    6.580270 3.562158 -1.334902
H    9.301033 2.498182 -0.037087
H    6.771865 -1.836411 0.117377
H    3.640600 3.669876 -0.067971
H    4.250505 -1.319552 0.102392
H    12.432164 -3.008467 0.143699
H    11.822549 1.980996 -0.023363
H    8.494153 -3.348352 1.454625
H    10.228312 -3.712101 1.462306
H    9.621601 -2.271787 2.302746
H    9.611162 -2.424564 -2.043417
H    10.221645 -3.802540 -1.106823
H    8.487602 -3.438332 -1.116399
H    7.579811 4.010703 -1.373066
H    6.453148 2.934367 -2.222545
H    5.845614 4.374319 -1.382152
H    7.584037 4.099761 1.198025
H    5.849925 4.463737 1.187070
H    6.459790 3.085457 2.123645
H    15.159283 -2.455806 0.110385
H    0.915014 3.116755 -0.046712
S    14.759811 1.171994 -0.007786
C    14.803564 -1.434471 0.082402
C    15.659326 -0.363376 0.046022
C    -4.005349 0.886091 0.018520
C    -3.304298 2.148637 -0.013263
C    -3.183199 -0.230909 0.051653
N    -3.875910 3.355415 -0.046903
N    -1.372486 3.457373 -0.043541
S    -2.667351 4.465939 -0.073597
H    -1.242444 -1.121103 0.080175
H    -3.633839 -1.218506 0.077663
C    -1.771815 -0.173368 0.053574
C    -1.844222 2.208099 -0.011364
C    -1.043133 1.006733 0.022718
C    -20.520134 -1.820778 -0.038354
C    -19.613918 -2.832209 -0.011628
S    -19.777984 -0.234241 -0.062836
C    -13.576825 -1.793051 0.016642
C    -14.383539 -0.633270 -0.012055
C    -13.810295 0.644757 -0.032434
C    -12.424404 0.744465 -0.024015
C    -11.617654 -0.415259 0.004491
C    -12.191182 -1.693648 0.025189
C    -11.564590 2.008352 -0.042416
C    -10.155891 1.413851 -0.021890
C    -10.212529 -0.006716 0.005911
C    -14.437026 -3.056894 0.034269
C    -15.845802 -2.462357 0.011575
C    -15.789873 -1.042653 -0.015266
C    -8.944291 2.075152 -0.028062
C    -7.751312 1.317559 -0.006494
C    -7.831439 -0.100443 0.021556
C    -9.052088 -0.777804 0.028208
C    -17.057659 -3.125167 0.014587
C    -18.250414 -2.370671 -0.009502
C    -18.172173 -0.952384 -0.036108
C    -16.949928 -0.273898 -0.039333
C    -11.824298 2.882903 1.204936
C    -11.807732 2.835266 -1.325019
C    -14.195540 -3.883146 1.317610
C    -14.175354 -3.932034 -1.212179
H    -11.565106 -2.582956 0.047082
H    -14.436387 1.534032 -0.054540
H    -17.108415 -4.211584 0.035048
H    -16.910897 0.811690 -0.059893
H    -8.889823 3.161136 -0.049529
H    -9.092801 -1.863205 0.049425
H    -12.856953 3.250721 1.212217
H    -11.157686 3.753068 1.213115
H    -11.656979 2.315624 2.126022
H    -11.628412 2.233821 -2.221851
H    -11.140939 3.704736 -1.357131
H    -12.840123 3.202256 -1.359686
H    -13.142784 -4.300214 -1.217865
H    -14.341209 -3.365114 -2.133752
H    -14.842106 -4.802137 -1.221081
H    -13.163259 -4.250372 1.354047
H    -14.862523 -4.752539 1.349371
H    -14.376070 -3.281135 2.213821
H    -6.128361 2.830805 -0.029742
H    -19.889205 -3.881599 0.006292
S    -6.231235 -0.819328 0.043732
C    -6.399378 1.783896 -0.009487
C    -5.457059 0.785281 0.014992
H    -21.599476 -1.898930 -0.045558
