124
TIFBT-torsion-3-21
C    17.167281 0.015125 -0.034631
C    18.003635 -1.154425 -0.199293
C    17.844739 1.213181 0.130802
N    17.588857 -2.413327 -0.373796
N    20.095840 -2.195126 -0.348515
S    18.936677 -3.347095 -0.506614
H    19.699032 2.309654 0.279626
H    17.274134 2.128120 0.259502
C    19.264383 1.323508 0.143198
C    19.454693 -1.031678 -0.185163
C    20.080700 0.233608 -0.010251
H    21.162584 0.304180 -0.002657
C    0.418153 0.689894 0.094925
C    1.230775 1.786031 0.246583
S    1.382057 -0.793943 -0.112435
C    7.337861 1.495038 0.194322
C    6.678427 0.256672 0.023569
C    7.403151 -0.931004 -0.143388
C    8.790511 -0.861127 -0.137063
C    9.449950 0.377216 0.033608
C    8.725245 1.564877 0.200638
C    9.798051 -1.999523 -0.297977
C    11.123633 -1.244149 -0.195987
C    10.894419 0.145601 -0.002112
C    6.330192 2.633378 0.355130
C    5.004624 1.877937 0.252776
C    5.234151 0.488162 0.058907
C    12.407063 -1.747507 -0.268967
C    13.498228 -0.858042 -0.147780
C    13.246235 0.526232 0.045310
C    11.951977 1.044467 0.120441
C    3.721207 2.381144 0.325235
C    2.629826 1.491565 0.203400
C    2.882477 0.107045 0.010235
C    4.176634 -0.410867 -0.064234
C    9.655140 -3.040864 0.834837
C    9.649048 -2.691868 -1.671505
C    6.478853 3.325603 1.728747
C    6.473261 3.674819 -0.777572
H    9.238474 2.514998 0.331466
H    6.889936 -1.881122 -0.274272
H    3.534367 3.442259 0.473097
H    4.349670 -1.473055 -0.212610
H    12.593728 -2.808643 -0.416932
H    11.779182 2.106717 0.268653
H    8.675333 -3.530436 0.789935
H    10.423198 -3.817799 0.745319
H    9.757692 -2.570688 1.818002
H    9.747728 -1.970998 -2.489307
H    10.416655 -3.463572 -1.801136
H    8.668917 -3.175248 -1.757545
H    7.453037 4.164426 -0.732439
H    6.370915 3.204722 -1.760793
H    5.705149 4.451708 -0.688135
H    7.458943 3.809022 1.815032
H    5.711179 4.097256 1.858279
H    6.380034 2.604660 2.546470
H    15.295482 -2.148978 -0.331314
H    0.833135 2.782354 0.385719
S    14.747103 1.426627 0.166996
C    14.897996 -1.152553 -0.191933
C    15.709809 -0.057132 -0.041499
C    -3.982203 0.380574 0.065112
C    -3.334372 1.652904 0.236647
C    -3.126209 -0.696126 -0.102704
N    -3.966114 2.818537 0.395369
N    -1.466849 3.034791 0.415776
S    -2.809830 3.972956 0.544650
H    -1.148103 -1.497049 -0.224695
H    -3.551402 -1.679903 -0.274199
C    -1.716578 -0.582578 -0.083480
C    -1.881046 1.775275 0.247178
C    -1.035750 0.615043 0.087391
C    -20.641172 -1.210980 -0.208384
C    -20.012552 -0.078613 -0.617629
S    -19.533041 -2.449825 0.344760
C    -13.914322 0.488864 -0.483382
C    -14.410047 -0.751859 -0.023785
C    -13.540991 -1.755863 0.422310
C    -12.175190 -1.500894 0.401507
C    -11.679341 -0.260249 -0.058044
C    -12.548756 0.743968 -0.504176
C    -11.032663 -2.421613 0.830620
C    -9.814934 -1.538928 0.553795
C    -10.218564 -0.277370 0.034105
C    -15.057366 1.408983 -0.912730
C    -16.274766 0.525641 -0.636433
C    -15.871766 -0.734038 -0.116546
C    -8.480577 -1.832324 0.746188
C    -7.511837 -0.857788 0.413476
C    -7.934944 0.397395 -0.101765
C    -9.285546 0.701964 -0.294832
C    -17.610489 0.819177 -0.830343
C    -18.579505 -0.153932 -0.503856
C    -18.155297 -1.406717 0.014587
C    -16.805639 -1.711741 0.213908
C    -10.999208 -3.710226 -0.021580
C    -11.136013 -2.784188 2.329230
C    -14.953582 1.771951 -2.411211
C    -15.091893 2.697430 -0.060288
H    -12.161480 1.697266 -0.857165
H    -13.928182 -2.709266 0.775177
H    -17.926596 1.781189 -1.227709
H    -16.501130 -2.675850 0.611683
H    -8.162781 -2.793797 1.143446
H    -9.591616 1.667629 -0.687656
H    -11.907764 -4.303065 0.136011
H    -10.139920 -4.333388 0.252392
H    -10.924984 -3.475590 -1.088199
H    -11.159887 -1.884162 2.951775
H    -10.279019 -3.392843 2.640430
H    -12.047031 -3.361158 2.526508
H    -14.183874 3.291130 -0.217757
H    -15.166004 2.462519 1.006268
H    -15.951771 3.319812 -0.334122
H    -14.043005 2.349771 -2.608043
H    -15.810978 2.379931 -2.722601
H    -14.928703 0.872063 -3.033948
H    -5.571715 -1.798919 0.920200
H    -20.536770 0.794383 -0.992346
S    -6.568916 1.453857 -0.409660
C    -6.088894 -0.931812 0.523096
C    -5.429939 0.198867 0.106778
H    -21.704981 -1.408975 -0.192798
