124
TIFBT-torsion-1-21
C    17.073889 -1.239459 -0.266930
C    17.965806 -0.236077 0.255556
C    17.677984 -2.352829 -0.826583
N    17.602480 0.919773 0.819369
N    20.099674 0.597422 0.722160
S    18.990667 1.695781 1.236502
H    19.476403 -3.442803 -1.325238
H    17.049457 -3.119008 -1.269392
C    19.091042 -2.534884 -0.869740
C    19.406722 -0.421959 0.198931
C    19.962837 -1.600270 -0.372391
H    21.039192 -1.726562 -0.408775
C    0.431091 0.758016 -0.029524
C    1.324280 1.798796 -0.098081
S    1.281286 -0.805976 0.047931
C    7.391702 1.045926 -0.146187
C    6.641233 -0.148955 -0.066083
C    7.274887 -1.397422 -0.006929
C    8.663440 -1.431798 -0.029879
C    9.413903 -0.237045 -0.110733
C    8.780307 1.011372 -0.169175
C    9.582414 -2.652504 0.022074
C    10.961117 -1.993858 -0.041085
C    10.837188 -0.578594 -0.117780
C    6.472499 2.266319 -0.198550
C    5.094028 1.607022 -0.139652
C    5.218559 0.192668 -0.062180
C    12.202054 -2.597185 -0.030789
C    13.356942 -1.785241 -0.102688
C    13.212579 -0.373452 -0.176489
C    11.958243 0.243894 -0.182785
C    3.852156 2.209558 -0.154973
C    2.697000 1.397562 -0.093158
C    2.844995 -0.013227 -0.016424
C    4.096512 -0.631279 0.000557
C    9.395061 -3.440896 1.337874
C    9.347424 -3.584353 -1.188024
C    6.703926 3.196244 1.013835
C    6.662538 3.057100 -1.512524
H    9.363332 1.927597 -0.231286
H    6.691936 -2.313758 0.054922
H    3.745644 3.290254 -0.214225
H    4.189225 -1.712093 0.059324
H    12.306516 -3.678307 0.028562
H    11.866091 1.325119 -0.237011
H    8.381479 -3.853627 1.401636
H    10.102095 -4.276871 1.392299
H    9.557990 -2.798402 2.208975
H    9.476312 -3.045049 -2.131828
H    10.053452 -4.422835 -1.173794
H    8.332978 -3.999321 -1.166723
H    7.676001 3.470549 -1.572879
H    6.502217 2.416116 -2.385248
H    5.955141 3.892673 -1.567087
H    7.718138 3.611839 0.995428
H    5.997246 4.034077 0.999351
H    6.573225 2.655269 1.956417
H    15.051998 -3.210749 -0.033432
H    1.003244 2.830260 -0.151863
S    14.773065 0.425799 -0.224070
C    14.732152 -2.176767 -0.108558
C    15.616446 -1.130917 -0.191032
C    -3.988389 0.768068 0.002322
C    -3.245974 2.005259 -0.065441
C    -3.203644 -0.374611 0.058467
N    -3.777317 3.229328 -0.124867
N    -1.271912 3.247396 -0.141695
S    -2.532635 4.297743 -0.187461
H    -1.293468 -1.328358 0.095833
H    -3.686726 -1.345616 0.112254
C    -1.791172 -0.364390 0.049036
C    -1.784737 2.015797 -0.075287
C    -1.023815 0.789462 -0.017396
C    -20.583275 -1.393760 0.049896
C    -19.710688 -2.433337 0.102874
S    -19.789521 0.166351 -0.016923
C    -13.642724 -1.592462 0.099734
C    -14.410998 -0.407999 0.040832
C    -13.796157 0.849521 -0.014097
C    -12.407717 0.903798 -0.009787
C    -11.639422 -0.280649 0.048644
C    -12.254545 -1.538484 0.104209
C    -11.506882 2.137779 -0.063043
C    -10.118393 1.498005 -0.029387
C    -10.221657 0.081338 0.036563
C    -14.543848 -2.826470 0.151784
C    -15.932422 -2.186882 0.114124
C    -15.829998 -0.770975 0.049569
C    -8.885669 2.118565 -0.056312
C    -7.718198 1.322847 -0.017907
C    -7.844927 -0.090489 0.048191
C    -9.087173 -0.726745 0.076488
C    -17.165362 -2.809251 0.135455
C    -18.332776 -2.016924 0.092053
C    -18.208093 -0.603171 0.027873
C    -16.964259 0.034513 0.005898
C    -11.734658 3.052808 1.161299
C    -11.726247 2.938193 -1.366562
C    -14.327462 -3.625473 1.456675
C    -14.312696 -3.742715 -1.070923
H    -11.657967 -2.447022 0.149150
H    -14.392748 1.758017 -0.059401
H    -17.251703 -3.892492 0.184761
H    -16.889663 1.117308 -0.043468
H    -8.795526 3.201190 -0.107122
H    -9.163546 -1.809273 0.126578
H    -12.754912 3.453815 1.160894
H    -11.040342 3.900907 1.145228
H    -11.583140 2.504853 2.096710
H    -11.568935 2.307829 -2.247525
H    -11.031601 3.784313 -1.422754
H    -12.746239 3.337600 -1.409091
H    -13.292493 -4.143917 -1.067599
H    -14.461804 -3.195663 -2.007250
H    -15.007050 -4.590862 -1.055913
H    -13.307568 -4.024877 1.502308
H    -15.022248 -4.471587 1.512169
H    -14.487024 -2.994098 2.336510
H    -6.046223 2.780348 -0.087539
H    -20.020233 -3.472282 0.148683
S    -6.269261 -0.861113 0.083919
C    -6.351594 1.743913 -0.038192
C    -5.442664 0.715629 0.009104
H    -21.664609 -1.436605 0.045353
