124
TIFBT-torsion-3-22
C    17.166587 0.008597 0.019569
C    18.003824 -1.152444 -0.193618
C    17.843106 1.196855 0.247647
N    17.590027 -2.401256 -0.431440
N    20.096794 -2.186550 -0.374590
S    18.938538 -3.328729 -0.597213
H    19.696519 2.283476 0.464265
H    17.271816 2.105107 0.414894
C    19.262640 1.305309 0.277308
C    19.454760 -1.031691 -0.161389
C    20.079780 0.223302 0.078963
H    21.161589 0.292551 0.099059
C    0.417336 0.689227 0.056388
C    1.229298 1.776217 0.265011
S    1.381743 -0.783227 -0.218191
C    7.336371 1.483940 0.238573
C    6.677754 0.255895 0.002598
C    7.403249 -0.922832 -0.216354
C    8.790559 -0.854523 -0.195481
C    9.449143 0.373471 0.040735
C    8.723692 1.552225 0.259437
C    9.798899 -1.984570 -0.403272
C    11.123942 -1.236234 -0.253630
C    10.893754 0.142615 0.005782
C    6.328068 2.613964 0.446592
C    5.003003 1.865373 0.298435
C    5.233281 0.486488 0.038742
C    12.407723 -1.736540 -0.340309
C    13.498228 -0.854971 -0.166777
C    13.245235 0.518461 0.091463
C    11.950631 1.033541 0.180850
C    3.719341 2.365336 0.386931
C    2.628546 1.483376 0.215278
C    2.881799 0.109754 -0.043301
C    4.176285 -0.404778 -0.134799
C    9.645949 -3.079591 0.676392
C    9.661067 -2.609195 -1.810022
C    6.466930 3.239435 1.852856
C    6.479978 3.708370 -0.633854
H    9.236262 2.494407 0.440628
H    6.890689 -1.865030 -0.397492
H    3.531902 3.418097 0.585139
H    4.349900 -1.458663 -0.333244
H    12.595151 -2.789362 -0.538246
H    11.777070 2.087464 0.379152
H    8.666238 -3.565392 0.599661
H    10.414219 -3.852071 0.555631
H    9.740609 -2.657797 1.682041
H    9.767009 -1.849496 -2.590937
H    10.429326 -3.374407 -1.970589
H    8.681431 -3.086887 -1.927670
H    7.459724 4.194271 -0.558247
H    6.384495 3.285986 -1.639174
H    5.711743 4.480852 -0.512886
H    7.446613 3.717283 1.969434
H    5.698750 4.004693 2.013575
H    6.361675 2.480193 2.634311
H    15.296408 -2.136924 -0.398044
H    0.831251 2.764797 0.450450
S    14.745408 1.410560 0.269598
C    14.898199 -1.148156 -0.213514
C    15.709187 -0.062067 -0.002989
C    -3.980156 0.387939 -0.012717
C    -3.334782 1.650559 0.222462
C    -3.127954 -0.683853 -0.214484
N    -3.967167 2.807521 0.435605
N    -1.466460 3.018993 0.477726
S    -2.809758 3.950910 0.646674
H    -1.148211 -1.481859 -0.358399
H    -3.558081 -1.658947 -0.421314
C    -1.716843 -0.573218 -0.184143
C    -1.881553 1.769882 0.246182
C    -1.037095 0.615750 0.038916
C    -20.642255 -1.205022 -0.122655
C    -20.011730 -0.126247 -0.655167
S    -19.536014 -2.377933 0.562330
C    -13.912058 0.438076 -0.592078
C    -14.409765 -0.743045 0.002461
C    -13.542235 -1.693266 0.556286
C    -12.175936 -1.444855 0.506625
C    -11.678203 -0.263752 -0.087763
C    -12.545978 0.686537 -0.641855
C    -11.034657 -2.314406 1.034618
C    -9.815615 -1.469813 0.661466
C    -10.217200 -0.273240 0.005395
C    -15.053711 1.307583 -1.119464
C    -16.272637 0.463304 -0.745226
C    -15.871636 -0.732220 -0.089969
C    -8.481432 -1.741775 0.886110
C    -7.511254 -0.811516 0.449184
C    -7.932771 0.379841 -0.201189
C    -9.282786 0.662431 -0.429273
C    -17.607981 0.736805 -0.968789
C    -18.578671 -0.191989 -0.535642
C    -18.156463 -1.380912 0.117341
C    -16.807173 -1.665290 0.347444
C    -11.004005 -3.689555 0.330415
C    -11.137490 -2.508576 2.564227
C    -14.951797 1.501313 -2.649205
C    -15.083765 2.682951 -0.415668
H    -12.157164 1.594239 -1.098188
H    -13.930987 -2.600942 1.012772
H    -17.922471 1.649758 -1.469727
H    -16.504212 -2.580390 0.848715
H    -8.165304 -2.653830 1.387592
H    -9.587237 1.579303 -0.926363
H    -11.913443 -4.259654 0.553295
H    -10.145547 -4.280037 0.671242
H    -10.930248 -3.574690 -0.755682
H    -11.159904 -1.545075 3.083201
H    -10.280904 -3.079958 2.940434
H    -12.048971 -3.059091 2.824808
H    -14.174680 3.253171 -0.639688
H    -15.156439 2.568404 0.670522
H    -15.942716 3.273131 -0.755718
H    -14.040607 2.051935 -2.910586
H    -15.808757 2.072415 -3.024971
H    -14.929553 0.537644 -3.167919
H    -5.566786 -1.691152 1.058709
H    -20.534573 0.701345 -1.123216
S    -6.564042 1.392509 -0.623878
C    -6.086847 -0.874518 0.568801
C    -5.429292 0.201979 0.030857
H    -21.706477 -1.397543 -0.083919
