124
TIFBT-torsion-3-14
C    17.166591 0.008536 -0.019227
C    18.003795 -1.152622 0.193447
C    17.843143 1.196889 -0.246716
N    17.589963 -2.401539 0.430667
N    20.096734 -2.186858 0.374019
S    18.938444 -3.329117 0.596060
H    19.696587 2.283574 -0.462745
H    17.271876 2.105229 -0.413563
C    19.262679 1.305328 -0.276267
C    19.454733 -1.031883 0.161333
C    20.079789 0.223210 -0.078400
H    21.161600 0.292447 -0.098424
C    0.417341 0.689415 -0.056570
C    1.229322 1.776508 -0.264595
S    1.381739 -0.783184 0.217254
C    7.336410 1.484156 -0.238008
C    6.677764 0.255992 -0.002739
C    7.403229 -0.922861 0.215639
C    8.790541 -0.854553 0.194910
C    9.449157 0.373560 -0.040599
C    8.723733 1.552439 -0.258722
C    9.798852 -1.984722 0.402190
C    11.123914 -1.236329 0.253004
C    10.893763 0.142666 -0.005671
C    6.328129 2.614299 -0.445511
C    5.003044 1.865645 -0.297810
C    5.233297 0.486618 -0.038854
C    12.407681 -1.736706 0.339474
C    13.498210 -0.855060 0.166483
C    13.245257 0.518518 -0.091018
C    11.950666 1.033668 -0.180197
C    3.719391 2.365669 -0.386091
C    2.628572 1.483635 -0.214964
C    2.881805 0.109871 0.042889
C    4.176281 -0.404728 0.134165
C    9.660936 -2.609994 1.808655
C    9.645948 -3.079238 -0.677976
C    6.479983 3.708177 0.635467
C    6.467075 3.240444 -1.851470
H    9.236330 2.494713 -0.439353
H    6.890644 -1.865151 0.396224
H    3.531977 3.418541 -0.583743
H    4.349869 -1.458721 0.332060
H    12.595079 -2.789638 0.536850
H    11.777136 2.087702 -0.377939
H    8.681266 -3.087678 1.926049
H    10.429146 -3.375325 1.968891
H    9.766901 -1.850660 2.589921
H    9.740688 -2.656995 -1.683429
H    10.414187 -3.851796 -0.557516
H    8.666221 -3.565053 -0.601536
H    7.446781 3.718316 -1.967771
H    6.361832 2.481581 -2.633294
H    5.698926 4.005804 -2.011855
H    7.459731 4.194117 0.560149
H    5.711756 4.480720 0.514831
H    6.384446 3.285312 1.640579
H    15.296355 -2.137170 0.397157
H    0.831283 2.765186 -0.449519
S    14.745455 1.410685 -0.268600
C    14.898172 -1.148297 0.213138
C    15.709190 -0.062109 0.003233
C    -3.980199 0.387994 0.012118
C    -3.334791 1.650744 -0.222326
C    -3.127935 -0.683848 0.213518
N    -3.967193 2.807818 -0.434802
N    -1.466491 3.019377 -0.476701
S    -2.809806 3.951370 -0.645151
H    -1.148223 -1.481885 0.357179
H    -3.557986 -1.659050 0.419990
C    -1.716846 -0.573167 0.183287
C    -1.881565 1.770119 -0.245898
C    -1.037086 0.615917 -0.039188
C    -20.642207 -1.205448 0.123374
C    -20.011772 -0.125800 0.654221
S    -19.535868 -2.379346 -0.559759
C    -13.912135 0.438831 0.590452
C    -14.409746 -0.743249 -0.002258
C    -13.542139 -1.694298 -0.554541
C    -12.175854 -1.445746 -0.505186
C    -11.678213 -0.263692 0.087393
C    -12.546067 0.687427 0.639931
C    -11.034511 -2.316059 -1.031765
C    -9.815528 -1.470842 -0.659839
C    -10.217206 -0.273263 -0.005654
C    -15.053862 1.309109 1.116390
C    -16.272722 0.464158 0.743448
C    -15.871619 -0.732369 0.090087
C    -8.481327 -1.743113 -0.883971
C    -7.511204 -0.812139 -0.448423
C    -7.932809 0.380212 0.200090
C    -9.282844 0.663111 0.427625
C    -17.608091 0.737921 0.966540
C    -18.578705 -0.191620 0.534826
C    -18.156395 -1.381535 -0.116284
C    -16.807081 -1.666183 -0.345902
C    -11.137254 -2.512538 -2.561097
C    -11.003846 -3.690146 -0.325504
C    -15.083974 2.683310 0.410291
C    -14.952023 1.505409 2.645799
H    -12.157322 1.595852 1.094883
H    -13.930820 -2.602707 -1.009627
H    -17.922659 1.651633 1.466043
H    -16.504047 -2.582050 -0.845725
H    -8.165139 -2.655944 -1.384002
H    -9.587358 1.580733 0.923290
H    -12.048676 -3.063528 -2.820881
H    -10.280598 -3.084406 -2.936402
H    -11.159734 -1.549820 -3.081517
H    -10.930190 -3.573658 0.760427
H    -10.145329 -4.281092 -0.665377
H    -11.913232 -4.260633 -0.547608
H    -14.040880 2.056531 2.906293
H    -14.929735 0.542617 3.166140
H    -15.809031 2.077086 3.020579
H    -14.174920 3.253947 0.633378
H    -15.942966 3.274004 0.749345
H    -15.156620 2.566938 -0.675706
H    -5.566756 -1.692677 -1.056490
H    -20.534685 0.702483 1.120966
S    -6.564136 1.393613 0.621242
C    -6.086819 -0.875288 -0.567847
C    -5.429294 0.202069 -0.031521
H    -21.706415 -1.398103 0.084911
