124
TIFBT-torsion-1-18
C    17.080320 -1.299539 0.001824
C    17.951721 -0.150281 0.000610
C    17.723612 -2.528829 0.003554
N    17.559828 1.126648 -0.000988
N    20.061828 0.858675 -0.000180
S    18.924445 2.043526 -0.001815
H    19.546935 -3.681981 0.005372
H    17.130241 -3.436681 0.004670
C    19.139069 -2.675018 0.003995
C    19.398107 -0.304653 0.001087
C    19.988322 -1.597360 0.002793
H    21.067553 -1.700951 0.003133
C    0.434785 0.733966 -0.001416
C    1.331496 1.773992 -0.001840
S    1.279832 -0.834720 -0.000670
C    7.397068 1.004729 -0.001126
C    6.642386 -0.190276 -0.000597
C    7.271881 -1.442283 0.000135
C    8.660494 -1.480037 0.000340
C    9.415254 -0.285123 -0.000194
C    8.785686 0.966852 -0.000940
C    9.575409 -2.704905 0.001136
C    10.956687 -2.048536 0.000995
C    10.837308 -0.630118 0.000203
C    6.481820 2.229234 -0.001853
C    5.100968 1.572306 -0.001610
C    5.220772 0.155403 -0.000910
C    12.195388 -2.655286 0.001535
C    13.353031 -1.842447 0.001300
C    13.214007 -0.429035 0.000495
C    11.961218 0.191210 -0.000069
C    3.860975 2.178888 -0.001966
C    2.702981 1.368558 -0.001631
C    2.846288 -0.044819 -0.000984
C    4.095831 -0.667027 -0.000609
C    9.360944 -3.565153 1.266781
C    9.361334 -3.566491 -1.263671
C    6.695425 3.090995 1.262975
C    6.695607 3.089614 -1.267595
H    9.371987 1.883085 -0.001347
H    6.685690 -2.358644 0.000550
H    3.758060 3.261555 -0.002480
H    4.184957 -1.749738 -0.000088
H    12.296790 -3.738355 0.002149
H    11.872171 1.274128 -0.000677
H    8.345259 -3.977084 1.288179
H    10.064598 -4.405492 1.287508
H    9.508900 -2.973158 2.175542
H    9.509580 -2.975456 -2.173009
H    10.064988 -4.406856 -1.283287
H    8.345651 -3.978434 -1.284949
H    7.711004 3.502165 -1.288771
H    6.548126 2.497571 -2.176408
H    5.991348 3.929356 -1.288234
H    7.710822 3.503563 1.283848
H    5.991172 3.930766 1.282591
H    6.547807 2.499951 2.172415
H    15.023534 -3.278252 0.002363
H    1.013874 2.807916 -0.002268
S    14.774986 0.369099 0.000268
C    14.724450 -2.235962 0.001761
C    15.620531 -1.192735 0.001345
C    -3.984769 0.756504 -0.001289
C    -3.238398 1.993165 -0.000808
C    -3.203663 -0.390047 -0.001878
N    -3.765849 3.220350 -0.000255
N    -1.260341 3.231279 -0.000433
S    -2.517740 4.286606 0.000102
H    -1.296523 -1.350540 -0.002471
H    -3.689844 -1.360993 -0.002219
C    -1.791146 -0.383855 -0.001970
C    -1.777097 1.999540 -0.000919
C    -1.020074 0.769437 -0.001467
C    -20.586046 -1.355956 0.002360
C    -19.716489 -2.399413 0.000385
S    -19.787720 0.203248 0.004247
C    -13.645998 -1.576959 -0.001444
C    -14.410821 -0.388810 0.000680
C    -13.792311 0.868115 0.002224
C    -12.403693 0.918081 0.001639
C    -11.638879 -0.270039 -0.000445
C    -12.257655 -1.527302 -0.002018
C    -11.499196 2.150571 0.003019
C    -10.112578 1.505829 0.001493
C    -10.220064 0.087942 -0.000507
C    -14.550717 -2.809449 -0.002843
C    -15.937445 -2.164769 -0.001182
C    -15.830893 -0.747691 0.000853
C    -8.877979 2.123264 0.001907
C    -7.712889 1.323116 0.000353
C    -7.843886 -0.091379 -0.001586
C    -9.088028 -0.724528 -0.002070
C    -17.172223 -2.783859 -0.001472
C    -18.337341 -1.986972 0.000292
C    -18.208526 -0.572132 0.002308
C    -16.962814 0.062257 0.002615
C    -11.719738 3.007970 1.269608
C    -11.720853 3.011615 -1.260899
C    -14.328739 -3.670548 1.260941
C    -14.330012 -3.666718 -1.269454
H    -11.663704 -2.438668 -0.003634
H    -14.386277 1.779458 0.003852
H    -17.261740 -3.867963 -0.003024
H    -16.885051 1.145952 0.004175
H    -8.784573 3.206805 0.003432
H    -9.167662 -1.807978 -0.003564
H    -12.738709 3.411618 1.291729
H    -11.022829 3.853833 1.290685
H    -11.566633 2.416380 2.177785
H    -11.568549 2.422649 -2.170915
H    -11.023963 3.857538 -1.280154
H    -12.739843 3.415322 -1.280959
H    -13.311087 -4.070553 -1.291767
H    -14.483123 -3.074966 -2.177525
H    -15.026983 -4.512585 -1.290731
H    -13.309794 -4.074450 1.281007
H    -15.025686 -4.516480 1.280360
H    -14.480934 -3.081555 2.170958
H    -6.036453 2.777176 0.001867
H    -20.029079 -3.438456 -0.000983
S    -6.270606 -0.867623 -0.003166
C    -6.344993 1.740502 0.000525
C    -5.439205 0.708355 -0.001139
H    -21.667519 -1.395391 0.002850
