124
TIFBT-torsion-1-3
C    17.115263 -0.381956 0.222913
C    17.904395 -1.503550 -0.229818
C    17.827702 0.715424 0.675506
N    17.434514 -2.657244 -0.715195
N    19.951566 -2.559084 -0.639046
S    18.744480 -3.582291 -1.081656
H    19.724385 1.664000 1.092121
H    17.281631 1.582391 1.035556
C    19.251990 0.761889 0.713776
C    19.357404 -1.448108 -0.186500
C    20.026964 -0.288979 0.296820
H    21.110686 -0.263876 0.322933
C    0.414019 1.012538 0.034368
C    1.273903 2.080492 -0.041402
S    1.313159 -0.521285 0.151641
C    7.362484 1.526055 0.013690
C    6.650155 0.308684 0.103734
C    7.323041 -0.917009 0.196440
C    8.712172 -0.906125 0.197383
C    9.424416 0.311176 0.107064
C    8.751622 1.536846 0.014600
C    9.669602 -2.094518 0.287321
C    11.026694 -1.391740 0.235213
C    10.857751 0.016164 0.130084
C    6.404987 2.714309 -0.076919
C    5.047997 2.011248 -0.026542
C    5.217204 0.603399 0.078993
C    12.286890 -1.953744 0.276551
C    13.416041 -1.106836 0.212009
C    13.224366 0.297638 0.112751
C    11.953074 0.874316 0.067468
C    3.787603 2.572444 -0.071128
C    2.658666 1.724344 -0.010708
C    2.851156 0.320724 0.093969
C    4.121690 -0.255630 0.140356
C    9.485572 -2.865009 1.614201
C    9.487019 -3.055400 -0.909114
C    6.586097 3.674714 1.120143
C    6.590393 3.485390 -1.403240
H    9.305325 2.470595 -0.054907
H    6.769347 -1.850789 0.265409
H    3.646928 3.647837 -0.151753
H    4.248560 -1.331578 0.220595
H    12.426625 -3.029398 0.355493
H    11.826679 1.950459 -0.011270
H    8.485406 -3.310506 1.668143
H    10.219073 -3.675485 1.695962
H    9.611378 -2.201957 2.476037
H    9.614658 -2.529367 -1.860512
H    10.220105 -3.869261 -0.867174
H    8.486612 -3.503452 -0.897073
H    7.590554 3.931073 -1.455909
H    6.465587 2.822681 -2.265460
H    5.856816 4.295735 -1.485510
H    7.586355 4.123155 1.109305
H    5.852747 4.488329 1.077783
H    6.457715 3.148192 2.071193
H    15.157423 -2.482774 0.304922
H    0.920435 3.099837 -0.117967
S    14.763544 1.138182 0.043671
C    14.802954 -1.462138 0.236864
C    15.655929 -0.393603 0.154988
C    -4.003574 0.880559 0.014764
C    -3.300373 2.139964 -0.062118
C    -3.183381 -0.235498 0.094758
N    -3.869896 3.345384 -0.144624
N    -1.366363 3.443819 -0.133906
S    -2.659462 4.452339 -0.208447
H    -1.244173 -1.126707 0.166173
H    -3.635736 -1.220705 0.156799
C    -1.771920 -0.179944 0.100857
C    -1.840231 2.197369 -0.055952
C    -1.041218 0.997048 0.027757
C    -20.522427 -1.801737 -0.049669
C    -19.618192 -2.812981 0.018742
S    -19.777340 -0.218169 -0.124755
C    -13.579609 -1.782640 0.052067
C    -14.384070 -0.623361 -0.022925
C    -13.808446 0.652274 -0.084400
C    -12.422469 0.750073 -0.070228
C    -11.617945 -0.409153 0.004487
C    -12.193871 -1.685134 0.066446
C    -11.560381 2.011208 -0.127441
C    -10.152881 1.415668 -0.077434
C    -10.212131 -0.002938 0.000308
C    -14.442138 -3.043758 0.108087
C    -15.849682 -2.448262 0.054860
C    -15.791069 -1.030461 -0.021399
C    -8.940144 2.074510 -0.100064
C    -7.748617 1.316359 -0.044930
C    -7.831308 -0.099624 0.033068
C    -9.053142 -0.774481 0.056767
C    -17.062696 -3.108717 0.072804
C    -18.253926 -2.353720 0.014043
C    -18.173010 -0.937364 -0.061772
C    -16.949578 -0.261267 -0.080396
C    -11.826319 2.929011 1.087113
C    -11.794200 2.793365 -1.439499
C    -14.210914 -3.824945 1.421203
C    -14.173384 -3.962379 -1.105121
H    -11.569558 -2.574111 0.123834
H    -14.432771 1.541204 -0.142118
H    -17.115514 -4.193667 0.131051
H    -16.908490 0.822870 -0.138764
H    -8.883683 3.158959 -0.159824
H    -9.095835 -1.858390 0.116119
H    -12.858439 3.298216 1.075217
H    -11.158422 3.798037 1.069138
H    -11.665522 2.393883 2.028382
H    -11.610303 2.160846 -2.313744
H    -11.125791 3.660237 -1.497620
H    -12.825752 3.160406 -1.493347
H    -13.141379 -4.331910 -1.090797
H    -14.332029 -3.427841 -2.047090
H    -14.841428 -4.831366 -1.088163
H    -13.179517 -4.192128 1.477640
H    -14.879556 -4.691737 1.478673
H    -14.396647 -3.191687 2.294526
H    -6.123041 2.825382 -0.113624
H    -19.895435 -3.860676 0.071589
S    -6.232428 -0.819644 0.089387
C    -6.395915 1.780277 -0.057339
C    -5.455415 0.781775 0.007641
H    -21.601830 -1.878457 -0.061530
