124
TIFBT-torsion-3-1
C    17.119275 -0.343493 0.029388
C    17.907736 -1.555406 -0.034406
C    17.844544 0.835671 0.101710
N    17.442492 -2.806522 -0.108977
N    19.956203 -2.688488 -0.085148
S    18.751489 -3.801709 -0.156891
H    19.741540 1.864767 0.173390
H    17.311357 1.780355 0.152139
C    19.267453 0.889173 0.114427
C    19.362543 -1.490656 -0.020817
C    20.039106 -0.241686 0.055079
H    21.122937 -0.214517 0.064005
C    0.411323 1.020049 0.006556
C    1.268513 2.090924 0.070019
S    1.314191 -0.513837 -0.075322
C    7.358354 1.548102 0.071522
C    6.649048 0.327754 -0.001224
C    7.324923 -0.898112 -0.066166
C    8.713977 -0.884422 -0.056999
C    9.423187 0.335885 0.015975
C    8.747379 1.561752 0.080678
C    9.674444 -2.072184 -0.118022
C    11.029623 -1.365540 -0.069267
C    10.856991 0.043607 0.008690
C    6.397930 2.735861 0.132810
C    5.042728 2.029171 0.085456
C    5.215424 0.619955 0.007241
C    12.291566 -1.924893 -0.092168
C    13.417910 -1.073533 -0.036850
C    13.222247 0.331014 0.040411
C    11.950111 0.905804 0.064213
C    3.780949 2.588486 0.110169
C    2.654160 1.737093 0.056689
C    2.850110 0.332189 -0.020834
C    4.122055 -0.242321 -0.046707
C    9.485162 -3.011024 1.094760
C    9.501377 -2.867531 -1.431644
C    6.572036 3.531871 1.445863
C    6.586219 3.674067 -1.080627
H    9.298797 2.497752 0.136656
H    6.773519 -1.834117 -0.122030
H    3.637562 3.664887 0.169847
H    4.251609 -1.319292 -0.106262
H    12.435056 -3.001296 -0.151476
H    11.820520 1.982770 0.123814
H    8.485814 -3.461460 1.083868
H    10.220209 -3.823914 1.073257
H    9.604740 -2.467083 2.037113
H    9.632207 -2.220321 -2.304683
H    10.236944 -3.677905 -1.493141
H    8.502429 -3.315894 -1.484432
H    7.585573 4.124536 -1.070797
H    6.465879 3.129604 -2.022580
H    5.851133 4.486927 -1.058971
H    7.571006 3.980324 1.497635
H    5.836474 4.342240 1.507564
H    6.441928 2.885092 2.319326
H    15.161360 -2.447053 -0.101561
H    0.912500 3.110760 0.125418
S    14.758324 1.176707 0.098030
C    14.804581 -1.427233 -0.047102
C    15.660109 -0.356998 0.018553
C    -4.004977 0.881085 -0.016541
C    -3.305038 2.142634 0.045721
C    -3.183558 -0.235457 -0.067399
N    -3.878452 3.347656 0.103419
N    -1.374640 3.451262 0.116996
S    -2.670782 4.457906 0.162188
H    -1.241893 -1.124084 -0.103990
H    -3.635354 -1.221173 -0.125784
C    -1.771953 -0.177432 -0.058807
C    -1.845290 2.202680 0.054170
C    -1.043981 1.002064 0.000314
C    -20.521245 -1.815050 -0.019255
C    -19.616830 -2.820150 0.110120
S    -19.776599 -0.237719 -0.180505
C    -13.578959 -1.785189 0.111618
C    -14.383620 -0.632586 -0.032304
C    -13.808318 0.638024 -0.162392
C    -12.422481 0.737568 -0.146311
C    -11.617755 -0.414961 -0.002426
C    -12.193350 -1.685946 0.127667
C    -11.560846 1.994313 -0.268857
C    -10.153342 1.404059 -0.175392
C    -10.212160 -0.008185 -0.019911
C    -14.441108 -3.041775 0.234630
C    -15.848693 -2.451273 0.141720
C    -15.790418 -1.039993 -0.014256
C    -8.941020 2.062228 -0.223992
C    -7.749384 1.309988 -0.116045
C    -7.831505 -0.100046 0.036605
C    -9.053085 -0.774043 0.087478
C    -17.061466 -3.110522 0.191743
C    -18.252778 -2.360901 0.085291
C    -18.172208 -0.951044 -0.070124
C    -16.949021 -0.276204 -0.121636
C    -11.836037 2.979429 0.889543
C    -11.785942 2.700271 -1.624976
C    -14.215312 -3.747661 1.590630
C    -14.166408 -4.026976 -0.923774
H    -11.568961 -2.569830 0.238397
H    -14.432731 1.521900 -0.272906
H    -17.114076 -4.190479 0.311037
H    -16.908175 0.802939 -0.240921
H    -8.884983 3.141869 -0.342459
H    -9.095387 -1.853173 0.205374
H    -12.868479 3.345762 0.849650
H    -11.169066 3.847053 0.826563
H    -11.681019 2.499070 1.860841
H    -11.595492 2.019188 -2.460482
H    -11.117717 3.563139 -1.727703
H    -12.817358 3.062483 -1.706829
H    -13.134100 -4.393834 -0.884343
H    -14.321617 -3.546531 -1.895007
H    -14.833671 -4.894423 -0.860641
H    -13.183984 -4.110290 1.672169
H    -14.883758 -4.610346 1.693890
H    -14.405210 -3.066403 2.426114
H    -6.124532 2.815951 -0.245336
H    -19.893792 -3.863379 0.220975
S    -6.232582 -0.813137 0.152038
C    -6.396892 1.774444 -0.139780
C    -5.456958 0.781841 -0.012441
H    -21.600551 -1.893095 -0.031370
