124
TIFBT-torsion-1-7
C    17.113479 -0.594729 0.479325
C    17.927365 -1.189792 -0.545559
C    17.778853 0.049519 1.501259
N    17.480156 -1.834780 -1.629218
N    19.998895 -1.730034 -1.484536
S    18.813204 -2.315005 -2.462359
H    19.652814 0.620168 2.425920
H    17.196168 0.528079 2.283048
C    19.204930 0.105254 1.580749
C    19.376445 -1.129571 -0.462053
C    20.007945 -0.467565 0.629169
H    21.090643 -0.428156 0.680392
C    0.418808 0.939160 0.074165
C    1.289031 1.997497 -0.016961
S    1.302980 -0.599470 0.234955
C    7.371552 1.391452 0.114366
C    6.647699 0.182749 0.224063
C    7.308960 -1.046138 0.351312
C    8.698107 -1.046948 0.366906
C    9.421856 0.161747 0.257141
C    8.760846 1.390424 0.130001
C    9.644181 -2.241218 0.493152
C    11.007961 -1.551382 0.440918
C    10.852957 -0.145259 0.302258
C    6.425652 2.585579 -0.013113
C    5.061992 1.895656 0.038746
C    5.217599 0.489115 0.177569
C    12.262747 -2.123916 0.508663
C    13.399825 -1.289799 0.437297
C    13.222905 0.113624 0.304532
C    11.956389 0.700527 0.231857
C    3.807227 2.466661 -0.031676
C    2.670151 1.630035 0.035987
C    2.849019 0.227570 0.174216
C    4.113865 -0.358668 0.246705
C    9.439028 -2.981403 1.834078
C    9.466239 -3.226101 -0.684309
C    6.602826 3.571369 1.163683
C    6.631433 3.324797 -1.354534
H    9.323319 2.317686 0.045461
H    6.746514 -1.973477 0.435154
H    3.677083 3.541160 -0.137929
H    4.230256 -1.433606 0.352378
H    12.390277 -3.199139 0.611840
H    11.841296 1.775693 0.126393
H    8.434600 -3.417427 1.886580
H    10.164698 -3.795995 1.941395
H    9.561034 -2.300948 2.682817
H    9.608859 -2.721704 -1.645230
H    10.191796 -4.045026 -0.616908
H    8.461911 -3.665383 -0.673796
H    7.635947 3.760623 -1.406802
H    6.509727 2.643737 -2.202777
H    5.905809 4.139258 -1.462780
H    7.607049 4.010873 1.153190
H    5.877136 4.390081 1.095249
H    6.460047 3.067696 2.125010
H    15.133325 -2.676950 0.592613
H    0.945585 3.017920 -0.120144
S    14.772563 0.938085 0.241821
C    14.787728 -1.654202 0.486193
C    15.642113 -0.597359 0.378666
C    -3.999458 0.846175 0.016306
C    -3.284085 2.096865 -0.085933
C    -3.190289 -0.274798 0.131742
N    -3.841759 3.304851 -0.204229
N    -1.337605 3.381105 -0.172756
S    -2.620644 4.398944 -0.284857
H    -1.260047 -1.181240 0.243798
H    -3.652239 -1.254020 0.214510
C    -1.778480 -0.231779 0.149527
C    -1.823575 2.141338 -0.067645
C    -1.036340 0.936420 0.053811
C    -20.542103 -1.684439 -0.102191
C    -19.647937 -2.702018 -0.002541
S    -19.781590 -0.110235 -0.211665
C    -13.600208 -1.727345 0.045627
C    -14.393153 -0.562888 -0.063729
C    -13.805077 0.705405 -0.152984
C    -12.418370 0.790639 -0.131542
C    -11.625340 -0.373768 -0.022337
C    -12.213726 -1.642399 0.067259
C    -11.544064 2.041904 -0.214014
C    -10.142629 1.434842 -0.138804
C    -10.215756 0.019227 -0.026370
C    -14.474969 -2.978600 0.127084
C    -15.876450 -2.371573 0.049634
C    -15.803921 -0.956723 -0.061559
C    -8.923631 2.081763 -0.168490
C    -7.739713 1.314340 -0.085348
C    -7.836230 -0.098452 0.026984
C    -9.064477 -0.761274 0.057934
C    -17.095750 -3.020065 0.075938
C    -18.279382 -2.255731 -0.009577
C    -18.184571 -0.842530 -0.120123
C    -16.954699 -0.178514 -0.147432
C    -11.810025 2.992407 0.975096
C    -11.761220 2.792887 -1.547007
C    -14.259636 -3.729110 1.460624
C    -14.206997 -3.929456 -1.061221
H    -11.598284 -2.535452 0.151188
H    -14.420528 1.598412 -0.237178
H    -17.159211 -4.102682 0.160880
H    -16.902973 0.903399 -0.232497
H    -8.856569 3.163835 -0.254601
H    -9.117758 -1.842935 0.143841
H    -12.838592 3.370510 0.946445
H    -11.134046 3.854630 0.940107
H    -11.660761 2.479741 1.930659
H    -11.577041 2.136878 -2.403705
H    -11.084309 3.651831 -1.621984
H    -12.788887 3.167901 -1.617629
H    -13.178543 -4.307817 -1.030946
H    -14.354715 -3.417013 -2.017143
H    -14.883108 -4.791670 -1.027163
H    -13.232119 -4.104283 1.533050
H    -14.936748 -4.588006 1.535020
H    -14.445066 -3.072721 2.316765
H    -6.099631 2.806307 -0.178125
H    -19.935416 -3.745444 0.074547
S    -6.244591 -0.831412 0.113877
C    -6.382679 1.765452 -0.098315
C    -5.452068 0.760369 -0.000961
H    -21.622085 -1.751392 -0.119359
