124
TIFBT-torsion-3-32
C    17.116915 -0.337058 -0.047308
C    17.908065 -1.531169 0.159220
C    17.839466 0.825379 -0.267140
N    17.445677 -2.764414 0.388656
N    19.958979 -2.647082 0.335757
S    18.756852 -3.744704 0.549898
H    19.734040 1.840362 -0.474981
H    17.304149 1.756183 -0.429324
C    19.262175 0.878669 -0.294677
C    19.362639 -1.466780 0.129258
C    20.036335 -0.235566 -0.102422
H    21.120045 -0.208358 -0.120990
C    0.406970 0.999237 -0.071478
C    1.260924 2.055063 -0.272719
S    1.313068 -0.512356 0.188780
C    7.351834 1.522594 -0.257279
C    6.645646 0.319184 -0.032056
C    7.324492 -0.888942 0.176007
C    8.713423 -0.874766 0.155576
C    9.419552 0.328662 -0.069434
C    8.740748 1.536756 -0.277628
C    9.676793 -2.045208 0.352858
C    11.030097 -1.347720 0.210692
C    10.854043 0.041363 -0.036201
C    6.388479 2.693000 -0.454780
C    5.035173 1.995651 -0.311927
C    5.211297 0.606544 -0.064827
C    12.293300 -1.898484 0.293485
C    13.417505 -1.058565 0.128661
C    13.218482 0.325972 -0.117213
C    11.945022 0.891937 -0.202617
C    3.772098 2.546528 -0.394262
C    2.647595 1.706830 -0.228389
C    2.846862 0.322059 0.017771
C    4.120178 -0.243901 0.102373
C    9.514005 -2.677572 1.753473
C    9.482043 -3.123068 -0.737314
C    6.583593 3.771390 0.634764
C    6.550900 3.324625 -1.855787
H    9.289849 2.459741 -0.450343
H    6.775400 -1.811929 0.348695
H    3.626150 3.607564 -0.583066
H    4.252312 -1.305536 0.291231
H    12.439297 -2.959568 0.481975
H    11.812877 1.953595 -0.391355
H    8.516619 -3.118270 1.866283
H    10.252071 -3.473381 1.906779
H    9.648739 -1.930131 2.541749
H    9.593681 -2.695676 -1.738847
H    10.219653 -3.925933 -0.623723
H    8.484132 -3.571100 -0.665491
H    7.548279 3.765218 -1.969127
H    6.415899 2.576759 -2.643607
H    5.812796 4.120361 -2.009313
H    7.581520 4.219325 0.562460
H    5.846008 4.574255 0.520958
H    6.472178 3.344518 1.636546
H    15.164138 -2.411641 0.349613
H    0.902027 3.060104 -0.449142
S    14.752484 1.160503 -0.286158
C    14.804931 -1.406505 0.173701
C    15.657861 -0.351008 -0.026394
C    -3.999251 0.871840 0.031560
C    -3.305137 2.113214 -0.194223
C    -3.188694 -0.239798 0.182701
N    -3.890979 3.298559 -0.385872
N    -1.383499 3.407395 -0.447882
S    -2.688275 4.395642 -0.595468
H    -1.241925 -1.117886 0.293892
H    -3.651247 -1.207559 0.352450
C    -1.774657 -0.182659 0.149747
C    -1.848238 2.173613 -0.229585
C    -1.049115 0.983093 -0.048696
C    -20.515808 -1.804372 0.126255
C    -19.632558 -2.707147 -0.373521
S    -19.744707 -0.354920 0.737023
C    -13.594730 -1.672529 -0.417320
C    -14.375750 -0.633751 0.137075
C    -13.778968 0.533286 0.631164
C    -12.395564 0.644682 0.562669
C    -11.614554 -0.394004 0.008275
C    -12.211553 -1.561278 -0.486011
C    -11.513644 1.803473 1.027975
C    -10.121170 1.286338 0.664587
C    -10.205515 -0.002004 0.068629
C    -14.477107 -2.831161 -0.882592
C    -15.869512 -2.313946 -0.518739
C    -15.785668 -1.026318 0.076551
C    -8.900968 1.905297 0.846936
C    -7.726503 1.238904 0.430396
C    -7.833049 -0.051073 -0.156887
C    -9.064256 -0.682575 -0.348427
C    -17.090487 -2.933343 -0.701797
C    -18.264403 -2.267835 -0.287669
C    -18.158368 -0.981136 0.305166
C    -16.926696 -0.347385 0.494043
C    -11.647950 2.036069 2.549786
C    -11.847224 3.105262 0.265020
C    -14.143246 -4.133050 -0.119985
C    -14.342901 -3.063516 -2.404424
H    -11.605255 -2.357735 -0.911969
H    -14.385313 1.329861 1.056791
H    -17.162576 -3.918813 -1.156713
H    -16.866309 0.637172 0.949513
H    -8.826705 2.891155 1.300170
H    -9.125568 -1.667726 -0.802304
H    -12.668277 2.344186 2.806154
H    -10.964925 2.826322 2.882399
H    -11.415133 1.124916 3.109991
H    -11.756864 2.962622 -0.816488
H    -11.167744 3.912732 0.561525
H    -12.871097 3.430611 0.483107
H    -13.322700 -3.371792 -2.661244
H    -14.575790 -2.152212 -2.964323
H    -15.026185 -3.853542 -2.737142
H    -13.119631 -4.458948 -0.338627
H    -14.823158 -4.940343 -0.416147
H    -14.232949 -3.990413 0.961601
H    -6.075606 2.635724 0.937932
H    -19.927678 -3.662529 -0.794807
S    -6.251315 -0.675162 -0.592881
C    -6.367558 1.680857 0.518185
C    -5.456480 0.791866 0.012830
H    -21.593142 -1.891803 0.179598
