124
TIFBT-torsion-1-33
C    17.115234 -0.382164 -0.224199
C    17.904487 -1.503055 0.230017
C    17.827518 0.714638 -0.678437
N    17.434719 -2.656066 0.717102
N    19.951769 -2.557927 0.640356
S    18.744797 -3.580540 1.084642
H    19.724088 1.662719 -1.096701
H    17.281299 1.581040 -1.039617
C    19.251801 0.761105 -0.717033
C    19.357489 -1.447622 0.186335
C    20.026902 -0.289143 -0.298750
H    21.110619 -0.264030 -0.325098
C    0.414022 1.012363 -0.034109
C    1.273915 2.080336 0.041284
S    1.313149 -0.521498 -0.150944
C    7.362487 1.525877 -0.014143
C    6.650154 0.308475 -0.103698
C    7.323037 -0.917250 -0.196050
C    8.712166 -0.906359 -0.197166
C    9.424413 0.310977 -0.107346
C    8.751625 1.536674 -0.015204
C    9.669593 -2.094784 -0.286759
C    11.026685 -1.391976 -0.235077
C    10.857745 0.015964 -0.130465
C    6.404999 2.714156 0.076234
C    5.048006 2.011078 0.026170
C    5.217205 0.603196 -0.078930
C    12.286881 -1.953994 -0.276384
C    13.416034 -1.107055 -0.212324
C    13.224357 0.297454 -0.113587
C    11.953073 0.874148 -0.068336
C    3.787618 2.572290 0.070687
C    2.658675 1.724173 0.010612
C    2.851155 0.320523 -0.093653
C    4.121685 -0.255850 -0.139939
C    9.487148 -3.055203 0.910072
C    9.485425 -2.865789 -1.613318
C    6.590509 3.485526 1.402392
C    6.586008 3.674299 -1.121032
H    9.305328 2.470451 0.053910
H    6.769338 -1.851054 -0.264647
H    3.646950 3.647709 0.150971
H    4.248545 -1.331823 -0.219861
H    12.426599 -3.029678 -0.354941
H    11.826682 1.950320 0.010009
H    8.486743 -3.503266 0.898309
H    10.220235 -3.869075 0.868375
H    9.614882 -2.528795 1.861250
H    9.611089 -2.203065 -2.475428
H    10.218952 -3.676263 -1.694863
H    8.485273 -3.311353 -1.666962
H    7.586256 4.122766 -1.110357
H    6.457573 3.147577 -2.071965
H    5.852646 4.487910 -1.078795
H    7.590673 3.931222 1.454884
H    5.856932 4.295881 1.484553
H    6.465777 2.822991 2.264755
H    15.157377 -2.483040 -0.304907
H    0.920457 3.099704 0.117583
S    14.763550 1.138028 -0.045083
C    14.802949 -1.462359 -0.237252
C    15.655918 -0.393781 -0.155902
C    -4.003576 0.880455 -0.014406
C    -3.300350 2.139815 0.062963
C    -3.183408 -0.235583 -0.094909
N    -3.869848 3.345210 0.146004
N    -1.366312 3.443605 0.135221
S    -2.659389 4.452115 0.210242
H    -1.244221 -1.126794 -0.166840
H    -3.635786 -1.220753 -0.157388
C    -1.771945 -0.180052 -0.101038
C    -1.840205 2.197197 0.056755
C    -1.041217 0.996895 -0.027467
C    -20.522489 -1.801479 0.048932
C    -19.618276 -2.812734 -0.019589
S    -19.777371 -0.217937 0.124243
C    -13.579666 -1.782536 -0.052353
C    -14.384104 -0.623248 0.022743
C    -13.808454 0.652366 0.084421
C    -12.422475 0.750137 0.070344
C    -11.617974 -0.409099 -0.004473
C    -12.193924 -1.685059 -0.066631
C    -11.560361 2.011241 0.127796
C    -10.152872 1.415679 0.077756
C    -10.212151 -0.002916 -0.000169
C    -14.442220 -3.043624 -0.108595
C    -15.849755 -2.448104 -0.055395
C    -15.791112 -1.030314 0.021072
C    -8.940122 2.074492 0.100505
C    -7.748609 1.316322 0.045321
C    -7.831330 -0.099649 -0.032838
C    -9.053177 -0.774478 -0.056665
C    -17.062784 -3.108525 -0.073518
C    -18.254000 -2.353507 -0.014732
C    -18.173054 -0.937164 0.061289
C    -16.949606 -0.261100 0.080096
C    -11.794207 2.793147 1.440011
C    -11.826235 2.929288 -1.086576
C    -14.173576 -3.962411 1.104515
C    -14.210920 -3.824647 -1.421794
H    -11.569627 -2.574041 -0.124096
H    -14.432765 1.541301 0.142219
H    -17.115627 -4.193466 -0.131919
H    -16.908495 0.823028 0.138614
H    -8.883639 3.158933 0.160394
H    -9.095891 -1.858380 -0.116143
H    -12.825754 3.160193 1.493895
H    -11.125779 3.659992 1.498324
H    -11.610349 2.160444 2.314130
H    -11.665432 2.394344 -2.027948
H    -11.158312 3.798289 -1.068411
H    -12.858343 3.298527 -1.074635
H    -13.179524 -4.191834 -1.478208
H    -14.396589 -3.191274 -2.295048
H    -14.879570 -4.691423 -1.479417
H    -13.141575 -4.331954 1.090225
H    -14.841631 -4.831385 1.087391
H    -14.332288 -3.427991 2.046540
H    -6.123001 2.825302 0.114233
H    -19.895540 -3.860415 -0.072601
S    -6.232461 -0.819700 -0.089166
C    -6.395898 1.780210 0.057814
C    -5.455420 0.781691 -0.007263
H    -21.601895 -1.878176 0.060729
