124
TIFBT-torsion-3-12
C    17.172893 0.057375 -0.034453
C    18.019340 -1.085753 0.232388
C    17.839891 1.238299 -0.321108
N    17.615515 -2.324733 0.531021
N    20.120453 -2.094221 0.458038
S    18.971364 -3.233006 0.738087
H    19.684562 2.327073 -0.594224
H    17.261392 2.133153 -0.530496
C    19.258501 1.355831 -0.359331
C    19.469238 -0.955817 0.190984
C    20.084222 0.290789 -0.111007
H    21.165431 0.367089 -0.136975
C    0.419372 0.611533 -0.059374
C    1.222333 1.693095 -0.321862
S    1.394968 -0.838924 0.282819
C    7.331379 1.447111 -0.299057
C    6.682615 0.226985 -0.002676
C    7.417444 -0.934458 0.270738
C    8.804146 -0.856931 0.242983
C    9.452898 0.363169 -0.053696
C    8.718112 1.524616 -0.326876
C    9.821471 -1.968062 0.502473
C    11.140471 -1.217944 0.313502
C    10.899297 0.145050 -0.011371
C    6.314210 2.558366 -0.558437
C    4.995157 1.808079 -0.370736
C    5.236299 0.444893 -0.045937
C    12.428197 -1.703914 0.420895
C    13.511591 -0.823600 0.202389
C    13.247647 0.533888 -0.121007
C    11.948987 1.034390 -0.231782
C    3.707624 2.293846 -0.479317
C    2.623991 1.413129 -0.262421
C    2.887900 0.055380 0.060707
C    4.186504 -0.444774 0.173009
C    9.691476 -2.524925 1.938163
C    9.674412 -3.115192 -0.522509
C    6.460571 3.704702 0.467580
C    6.444986 3.116367 -1.993585
H    9.223116 2.460787 -0.554538
H    6.912453 -1.870640 0.498399
H    3.511816 3.334495 -0.727159
H    4.368459 -1.486649 0.421137
H    12.624036 -2.744548 0.668813
H    11.767007 2.076225 -0.480109
H    8.715804 -3.003780 2.081277
H    10.465949 -3.275625 2.133564
H    9.793282 -1.727586 2.681183
H    9.764302 -2.742058 -1.547641
H    10.448357 -3.875491 -0.366034
H    8.698321 -3.603573 -0.420228
H    7.420767 3.595272 -2.135729
H    6.343594 2.319640 -2.737324
H    5.670707 3.867309 -2.188841
H    7.436765 4.193069 0.366326
H    5.686767 4.465163 0.311188
H    6.370012 3.330751 1.492347
H    15.319943 -2.079443 0.490666
H    0.816404 2.668704 -0.553288
S    14.740617 1.427525 -0.345716
C    14.913848 -1.103732 0.259681
C    15.716106 -0.023017 -0.004948
C    -3.970907 0.290097 0.051928
C    -3.338636 1.542899 -0.251859
C    -3.117946 -0.771233 0.280322
N    -3.981920 2.681611 -0.525874
N    -1.480658 2.906327 -0.591862
S    -2.832293 3.817739 -0.805638
H    -1.129417 -1.552140 0.443842
H    -3.546311 -1.741592 0.512790
C    -1.704729 -0.653961 0.240040
C    -1.886971 1.669203 -0.290808
C    -1.035445 0.529206 -0.033361
C    -20.660820 -1.052268 0.094102
C    -20.000446 -0.164232 0.881610
S    -19.589141 -2.017587 -0.900104
C    -13.892075 0.300914 0.849010
C    -14.422626 -0.671360 -0.027979
C    -13.583067 -1.453414 -0.831537
C    -12.211349 -1.248628 -0.744752
C    -11.680809 -0.276360 0.132152
C    -12.520481 0.505661 0.935920
C    -11.096045 -1.963854 -1.507614
C    -9.854624 -1.268122 -0.947765
C    -10.221405 -0.283986 0.010554
C    -15.007646 1.016576 1.611147
C    -16.249103 0.321404 1.050592
C    -15.882495 -0.662639 0.093152
C    -8.529213 -1.491431 -1.263355
C    -7.534093 -0.725907 -0.616447
C    -7.921381 0.256241 0.334376
C    -9.261388 0.486808 0.659882
C    -17.575077 0.546428 1.365395
C    -18.570965 -0.218203 0.720345
C    -18.182979 -1.196770 -0.233574
C    -16.843368 -1.430726 -0.557892
C    -11.226023 -1.742100 -3.031425
C    -11.082634 -3.477159 -1.195283
C    -15.020380 2.529849 1.298562
C    -14.878542 0.795056 3.135051
H    -12.106451 1.253015 1.609287
H    -13.997052 -2.200590 -1.505154
H    -17.863302 1.297954 2.097145
H    -16.566734 -2.183887 -1.290478
H    -8.239683 -2.242499 -1.995014
H    -9.539024 1.242084 1.389836
H    -12.152598 -2.188716 -3.410599
H    -10.387273 -2.206278 -3.563207
H    -11.236288 -0.674965 -3.274896
H    -10.990666 -3.656786 -0.119395
H    -10.241314 -3.968776 -1.697550
H    -12.006491 -3.953270 -1.543964
H    -13.952124 1.241562 3.514738
H    -14.868587 -0.272060 3.378752
H    -15.717516 1.259503 3.666247
H    -14.096665 3.005781 1.647861
H    -15.862000 3.021715 1.800046
H    -15.111563 2.709294 0.222600
H    -5.610873 -1.444844 -1.474323
H    -20.499176 0.516952 1.563231
S    -6.522373 1.088637 0.990515
C    -6.109986 -0.778606 -0.778164
C    -5.426629 0.103010 0.012079
H    -21.729211 -1.210838 0.026798
