124
TIFBT-torsion-1-31
C    17.110947 -0.457073 -0.385109
C    17.920813 -1.386895 0.360311
C    17.791181 0.487316 -1.130341
N    17.468515 -2.360297 1.158075
N    19.986221 -2.255689 1.027564
S    18.795948 -3.124247 1.757050
H    19.669886 1.307045 -1.822472
H    17.219626 1.214525 -1.699538
C    19.215898 0.540390 -1.200963
C    19.370997 -1.327082 0.284572
C    20.012663 -0.340398 -0.516487
H    21.095548 -0.306138 -0.564063
C    0.415255 0.983108 -0.033176
C    1.279053 2.046670 0.058113
S    1.308751 -0.551157 -0.183593
C    7.365368 1.474527 -0.042979
C    6.648770 0.261223 -0.151035
C    7.317390 -0.964433 -0.270892
C    8.706550 -0.957515 -0.280923
C    9.423019 0.255751 -0.172840
C    8.754571 1.481292 -0.052973
C    9.659781 -2.146850 -0.399215
C    11.019404 -1.449092 -0.344254
C    10.855591 -0.043000 -0.211422
C    6.412192 2.663732 0.075934
C    5.052723 1.965863 0.020704
C    5.216845 0.559710 -0.111961
C    12.277434 -2.014321 -0.405159
C    13.409798 -1.172766 -0.332887
C    13.223582 0.230656 -0.207685
C    11.953820 0.810009 -0.140732
C    3.794439 2.530046 0.083091
C    2.662448 1.686755 0.013333
C    2.849813 0.284762 -0.118576
C    4.118232 -0.294597 -0.182882
C    9.482926 -3.128584 0.781046
C    9.464038 -2.892885 -1.738319
C    6.607990 3.409091 1.415437
C    6.588935 3.646095 -1.103810
H    9.311493 2.412010 0.030205
H    6.760477 -1.895193 -0.353536
H    3.657731 3.604195 0.184476
H    4.241162 -1.369250 -0.283934
H    12.412364 -3.088970 -0.504125
H    11.831657 1.884898 -0.040706
H    8.481143 -3.573544 0.768184
H    10.213328 -3.943607 0.719258
H    9.618947 -2.620075 1.740763
H    9.585519 -2.214800 -2.589017
H    10.194653 -3.703751 -1.839892
H    8.462276 -3.334691 -1.793068
H    7.590559 4.091417 -1.090572
H    6.453264 3.138029 -2.063848
H    5.858270 4.460859 -1.041618
H    7.609771 3.850844 1.470380
H    5.877306 4.219807 1.517484
H    6.486470 2.730553 2.265729
H    15.149328 -2.550406 -0.471495
H    0.929381 3.065541 0.155542
S    14.766857 1.064930 -0.138256
C    14.797272 -1.529850 -0.374981
C    15.649323 -0.466304 -0.269759
C    -4.002663 0.865782 0.001948
C    -3.294751 2.120844 0.102791
C    -3.186717 -0.251172 -0.104443
N    -3.859710 3.326189 0.213108
N    -1.355899 3.416223 0.194600
S    -2.645137 4.427371 0.295657
H    -1.250923 -1.147322 -0.202486
H    -3.642788 -1.233278 -0.185560
C    -1.775089 -0.200365 -0.114928
C    -1.834446 2.173349 0.092071
C    -1.039968 0.972329 -0.020231
C    -20.531494 -1.755459 0.042073
C    -19.631235 -2.768500 -0.048560
S    -19.780238 -0.176646 0.149028
C    -13.588786 -1.760717 -0.068632
C    -14.388693 -0.600199 0.031614
C    -13.808093 0.671682 0.118691
C    -12.421780 0.764482 0.104324
C    -11.621795 -0.395979 0.004245
C    -12.202702 -1.668206 -0.083192
C    -11.554825 2.020888 0.186209
C    -10.149694 1.421249 0.121159
C    -10.214437 0.004787 0.014236
C    -14.456215 -3.017107 -0.149472
C    -15.861398 -2.417493 -0.082031
C    -15.797241 -1.001815 0.023605
C    -8.934451 2.074982 0.154803
C    -7.745905 1.313738 0.081322
C    -7.834053 -0.100014 -0.025683
C    -9.058458 -0.769715 -0.060571
C    -17.076963 -3.072797 -0.112115
C    -18.265210 -2.314646 -0.036102
C    -18.178755 -0.900496 0.069045
C    -16.952714 -0.229604 0.100111
C    -11.783333 2.776326 1.514774
C    -11.819519 2.964850 -1.008390
C    -14.189392 -3.961447 1.044285
C    -14.229655 -3.772051 -1.478634
H    -11.581909 -2.558183 -0.160071
H    -14.428899 1.561611 0.195832
H    -17.134032 -4.156089 -0.192868
H    -16.907383 0.852922 0.180919
H    -8.873789 3.157752 0.236780
H    -9.105340 -1.851998 -0.142259
H    -12.813383 3.146050 1.578188
H    -11.111505 3.639250 1.589765
H    -11.600304 2.124971 2.375262
H    -11.662336 2.448936 -1.960931
H    -11.148423 3.830884 -0.973480
H    -12.850260 3.337463 -0.986883
H    -13.199726 -4.141865 -1.544010
H    -14.414124 -3.120329 -2.338541
H    -14.901636 -4.634972 -1.552956
H    -13.158731 -4.334264 1.021101
H    -14.860576 -4.827505 1.010290
H    -14.345035 -3.445797 1.997220
H    -6.114597 2.815086 0.176855
H    -19.912564 -3.813805 -0.122820
S    -6.237967 -0.824558 -0.100814
C    -6.391470 1.772362 0.099820
C    -5.454837 0.772015 0.011706
H    -21.611169 -1.828290 0.053766
