124
TIFBT-torsion-1-13
C    17.085005 -1.138602 0.375597
C    17.941001 -0.360953 -0.481133
C    17.710107 -2.058218 1.196011
N    17.544574 0.571289 -1.353651
N    20.044555 0.239350 -1.305113
S    18.907416 1.148020 -2.069550
H    19.535214 -2.990536 1.892777
H    17.097886 -2.654200 1.866115
C    19.125158 -2.248068 1.213940
C    19.381417 -0.553129 -0.453677
C    19.966101 -1.518292 0.414553
H    21.042427 -1.650826 0.424957
C    0.431591 0.788561 0.090935
C    1.320249 1.832780 0.165725
S    1.288398 -0.772009 0.017373
C    7.390267 1.103732 0.247417
C    6.645045 -0.093978 0.162350
C    7.283978 -1.339826 0.105431
C    8.672559 -1.368671 0.135532
C    9.417723 -0.171064 0.221321
C    8.778960 1.074661 0.277566
C    9.596772 -2.585574 0.087046
C    10.972396 -1.921368 0.158088
C    10.842607 -0.507380 0.235587
C    6.465985 2.320447 0.295986
C    5.090448 1.655794 0.228947
C    5.220999 0.242015 0.151006
C    12.216287 -2.520008 0.153712
C    13.367387 -1.704801 0.231050
C    13.216718 -0.293659 0.303326
C    11.960171 0.319262 0.307245
C    3.846142 2.253427 0.237733
C    2.694557 1.436955 0.168621
C    2.848560 0.026845 0.091594
C    4.102600 -0.586269 0.081268
C    9.359261 -3.519828 1.294790
C    9.419512 -3.373145 -1.230657
C    6.645788 3.110576 1.611791
C    6.700319 3.252550 -0.914156
H    9.357965 1.993191 0.343334
H    6.705038 -2.258435 0.039679
H    3.735036 3.333653 0.297198
H    4.199903 -1.666656 0.022051
H    12.324955 -3.600719 0.094622
H    11.863838 1.400026 0.362355
H    8.346688 -3.939006 1.267621
H    10.068825 -4.355367 1.283344
H    9.480866 -2.981091 2.239893
H    9.584411 -2.728932 -2.100109
H    10.130203 -4.206179 -1.282398
H    8.407948 -3.789881 -1.300201
H    7.712785 3.672087 -0.889832
H    6.576863 2.712041 -1.857978
H    5.990297 4.087604 -0.902664
H    7.657313 3.527862 1.678085
H    5.934886 3.943360 1.663401
H    6.483213 2.468036 2.482956
H    15.078147 -3.123962 0.173109
H    0.994837 2.862933 0.218355
S    14.775938 0.508671 0.367632
C    14.746811 -2.093082 0.244067
C    15.621149 -1.044298 0.333082
C    -3.987603 0.781303 0.030020
C    -3.250530 2.021312 0.104195
C    -3.198016 -0.358230 -0.021921
N    -3.787066 3.243218 0.161477
N    -1.281914 3.271087 0.195154
S    -2.547032 4.316430 0.233677
H    -1.283894 -1.304437 -0.047574
H    -3.676905 -1.331060 -0.080079
C    -1.785685 -0.342486 -0.003011
C    -1.789438 2.037568 0.123869
C    -1.023321 0.814297 0.069639
C    -20.573282 -1.444172 -0.144926
C    -19.696344 -2.480403 -0.191175
S    -19.786034 0.118943 -0.071612
C    -13.631836 -1.616402 -0.140184
C    -14.405067 -0.434892 -0.087115
C    -13.795481 0.824957 -0.027205
C    -12.407270 0.884541 -0.020694
C    -11.634014 -0.296949 -0.073339
C    -12.243879 -1.557116 -0.133842
C    -11.511604 2.121946 0.039655
C    -10.120460 1.487502 0.016602
C    -10.217774 0.070465 -0.050321
C    -14.527817 -2.853828 -0.199376
C    -15.919074 -2.219543 -0.172575
C    -15.822561 -0.803268 -0.107024
C    -8.890376 2.112798 0.053004
C    -7.719595 1.321597 0.023296
C    -7.840371 -0.092202 -0.044000
C    -9.079910 -0.733236 -0.081751
C    -17.149424 -2.846604 -0.203723
C    -18.320158 -2.058740 -0.169415
C    -18.201375 -0.644535 -0.104043
C    -16.960194 -0.002116 -0.072176
C    -11.744000 2.921386 1.341514
C    -11.733444 3.036263 -1.186313
C    -14.302786 -3.769246 1.025099
C    -14.298218 -3.651987 -1.502522
H    -11.643500 -2.463357 -0.174274
H    -14.395875 1.731157 0.013564
H    -17.231240 -3.930157 -0.253884
H    -16.890119 1.080947 -0.022083
H    -8.804798 3.195756 0.104641
H    -9.151726 -1.816040 -0.132618
H    -12.765754 3.317035 1.376212
H    -11.052923 3.770050 1.403122
H    -11.591158 2.291515 2.223616
H    -11.572609 2.489023 -2.120586
H    -11.042532 3.887018 -1.164789
H    -12.755204 3.433349 -1.193736
H    -13.276543 -4.047656 -1.540136
H    -14.453177 -3.021191 -2.383595
H    -14.989444 -4.500640 -1.563461
H    -13.281057 -4.166533 1.029792
H    -14.993750 -4.620043 1.004601
H    -14.461349 -3.222817 1.960236
H    -6.053834 2.785545 0.105573
H    -20.001549 -3.520514 -0.239588
S    -6.261506 -0.856715 -0.068138
C    -6.354814 1.747945 0.053793
C    -5.441588 0.723205 0.012957
H    -21.654447 -1.491142 -0.148929
