124
TIFBT-torsion-1-5
C    17.110963 -0.456832 0.384832
C    17.920557 -1.387412 -0.359998
C    17.791478 0.487884 1.129370
N    17.467959 -2.361285 -1.156984
N    19.985707 -2.257161 -1.026753
S    18.795193 -3.126013 -1.755513
H    19.670439 1.307684 1.820744
H    17.220155 1.215631 1.698117
C    19.216222 0.540694 1.199816
C    19.370764 -1.327870 -0.284412
C    20.012727 -0.340748 0.515895
H    21.095623 -0.306702 0.563356
C    0.415274 0.983299 0.033294
C    1.279057 2.046903 -0.057686
S    1.308800 -0.550993 0.183235
C    7.365385 1.474830 0.043276
C    6.648804 0.261484 0.151005
C    7.317440 -0.964197 0.270502
C    8.706602 -0.957260 0.280543
C    9.423050 0.256045 0.172810
C    8.754586 1.481611 0.053262
C    9.659851 -2.146616 0.398521
C    11.019463 -1.448824 0.343750
C    10.855625 -0.042691 0.211317
C    6.412186 2.664059 -0.075270
C    5.052730 1.966150 -0.020277
C    5.216874 0.559963 0.111995
C    12.277500 -2.014039 0.404530
C    13.409859 -1.172444 0.332498
C    13.223612 0.231012 0.207679
C    11.953833 0.810358 0.140889
C    3.794435 2.530326 -0.082538
C    2.662458 1.686998 -0.013019
C    2.849846 0.284971 0.118518
C    4.118276 -0.294383 0.182665
C    9.464118 -2.893035 1.737409
C    9.483008 -3.128004 -0.782034
C    6.588895 3.646057 1.104785
C    6.607992 3.409829 -1.414538
H    9.311499 2.412359 -0.029653
H    6.760543 -1.894989 0.352884
H    3.657706 3.604502 -0.183612
H    4.241227 -1.369061 0.283425
H    12.412460 -3.088714 0.503180
H    11.831652 1.885274 0.041168
H    8.462350 -3.334845 1.792046
H    10.194720 -3.703943 1.838744
H    9.585618 -2.215200 2.588304
H    9.619047 -2.619213 -1.741598
H    10.213403 -3.943051 -0.720473
H    8.481220 -3.572958 -0.769314
H    7.609776 3.851593 -1.469339
H    6.486474 2.731554 -2.265040
H    5.877313 4.220581 -1.516341
H    7.590530 4.091359 1.091731
H    5.858253 4.460859 1.042815
H    6.453169 3.137696 2.064659
H    15.149458 -2.550073 0.470636
H    0.929364 3.065790 -0.154866
S    14.766855 1.065341 0.138512
C    14.797330 -1.529511 0.374453
C    15.649362 -0.465895 0.269602
C    -4.002644 0.865891 -0.001743
C    -3.294752 2.120901 -0.103363
C    -3.186680 -0.250979 0.105405
N    -3.859733 3.326162 -0.214487
N    -1.355932 3.416261 -0.195982
S    -2.645187 4.427322 -0.297729
H    -1.250874 -1.147022 0.204145
H    -3.642739 -1.233033 0.187235
C    -1.775055 -0.200140 0.115873
C    -1.834449 2.173441 -0.092658
C    -1.039950 0.972505 0.020403
C    -20.531421 -1.755699 -0.042128
C    -19.631143 -2.768733 0.048399
S    -19.780196 -0.176858 -0.148871
C    -13.588713 -1.760828 0.068661
C    -14.388643 -0.600315 -0.031457
C    -13.808068 0.671587 -0.118382
C    -12.421756 0.764413 -0.104004
C    -11.621746 -0.396043 -0.004065
C    -12.202629 -1.668291 0.083230
C    -11.554827 2.020845 -0.185744
C    -10.149682 1.421230 -0.120786
C    -10.214394 0.004753 -0.014030
C    -14.456119 -3.017242 0.149361
C    -15.861315 -2.417651 0.081969
C    -15.797185 -1.001960 -0.023502
C    -8.934453 2.074992 -0.154374
C    -7.745892 1.313763 -0.081014
C    -7.834003 -0.100006 0.025823
C    -9.058397 -0.769733 0.060655
C    -17.076867 -3.072984 0.111956
C    -18.265127 -2.314848 0.036017
C    -18.178702 -0.900682 -0.068955
C    -16.952672 -0.229763 -0.099924
C    -11.819527 2.964670 1.008959
C    -11.783357 2.776431 -1.514223
C    -14.229573 -3.772258 1.478495
C    -14.189250 -3.961509 -1.044431
H    -11.581819 -2.558265 0.160003
H    -14.428891 1.561514 -0.195410
H    -17.133915 -4.156288 0.192568
H    -16.907361 0.852773 -0.180602
H    -8.873814 3.157773 -0.236216
H    -9.105259 -1.852025 0.142230
H    -12.850293 3.337217 0.987538
H    -11.148490 3.830753 0.974103
H    -11.662266 2.448674 1.961443
H    -11.600246 2.125198 -2.374786
H    -11.111599 3.639420 -1.589082
H    -12.813437 3.146073 -1.577616
H    -13.158596 -4.334349 -1.021217
H    -14.344834 -3.445806 -1.997348
H    -14.860445 -4.827561 -1.010522
H    -13.199648 -4.142086 1.543852
H    -14.901570 -4.635171 1.552765
H    -14.414038 -3.120573 2.338430
H    -6.114621 2.815156 -0.176476
H    -19.912450 -3.814053 0.122526
S    -6.237903 -0.824522 0.100819
C    -6.391470 1.772420 -0.099519
C    -5.454810 0.772088 -0.011533
H    -21.611094 -1.828554 -0.053850
