124
TIFBT-torsion-3-15
C    17.167321 0.015468 0.035443
C    18.003707 -1.154180 0.199212
C    17.844745 1.213697 -0.128889
N    17.588966 -2.413254 0.372598
N    20.095937 -2.194920 0.347802
S    18.936805 -3.347066 0.504786
H    19.699007 2.310378 -0.276559
H    17.274114 2.128719 -0.256878
C    19.264383 1.324097 -0.141022
C    19.454759 -1.031358 0.185358
C    20.080731 0.234102 0.011597
H    21.162613 0.304729 0.004191
C    0.418174 0.689613 -0.095360
C    1.230764 1.785905 -0.246086
S    1.382124 -0.794351 0.110855
C    7.337862 1.495137 -0.193443
C    6.678464 0.256599 -0.023796
C    7.403222 -0.931185 0.142245
C    8.790579 -0.861242 0.136133
C    9.449983 0.377272 -0.033420
C    8.725245 1.565041 -0.199539
C    9.798150 -1.999732 0.296186
C    11.123710 -1.244212 0.195002
C    10.894457 0.145692 0.002278
C    6.330160 2.633564 -0.353424
C    5.004614 1.877981 -0.251835
C    5.234183 0.488056 -0.059094
C    12.407153 -1.747574 0.267712
C    13.498294 -0.857960 0.147412
C    13.246261 0.526467 -0.044534
C    11.951991 1.044709 -0.119384
C    3.721180 2.381191 -0.324006
C    2.629825 1.491465 -0.203007
C    2.882522 0.106800 -0.010951
C    4.176691 -0.411121 0.063207
C    9.649015 -2.693268 1.669099
C    9.655417 -3.040103 -0.837543
C    6.473059 3.674084 0.780144
C    6.478942 3.326919 -1.726460
H    9.238446 2.515296 -0.329502
H    6.890033 -1.881435 0.272275
H    3.534310 3.442419 -0.471009
H    4.349761 -1.473420 0.210740
H    12.593846 -2.808828 0.414801
H    11.779167 2.107077 -0.266713
H    8.668897 -3.176769 1.754603
H    10.416644 -3.465046 1.798157
H    9.747561 -1.973098 2.487533
H    9.758066 -2.569074 -1.820290
H    10.423498 -3.817083 -0.748606
H    8.675626 -3.529754 -0.793180
H    7.459016 3.810459 -1.812237
H    6.380255 2.606637 -2.544782
H    5.711240 4.098635 -1.855450
H    7.452817 4.163775 0.735515
H    5.704920 4.451009 0.691262
H    6.370633 3.203179 1.762969
H    15.295584 -2.148969 0.330071
H    0.833101 2.782324 -0.384460
S    14.747105 1.427034 -0.165274
C    14.898070 -1.152444 0.191486
C    15.709851 -0.056860 0.042076
C    -3.982215 0.380077 -0.066021
C    -3.334385 1.652498 -0.236948
C    -3.126142 -0.696628 0.101511
N    -3.966161 2.818175 -0.395170
N    -1.466921 3.034568 -0.415317
S    -2.809936 3.972733 -0.543849
H    -1.148033 -1.497498 0.223386
H    -3.551222 -1.680511 0.272653
C    -1.716532 -0.583001 0.082432
C    -1.881062 1.774955 -0.247317
C    -1.035722 0.614707 -0.087947
C    -20.641236 -1.210497 0.209418
C    -20.012601 -0.077456 0.616770
S    -19.533119 -2.450293 -0.341620
C    -13.914356 0.489667 0.481690
C    -14.410098 -0.751818 0.024170
C    -13.541058 -1.756590 -0.420224
C    -12.175252 -1.501620 -0.399820
C    -11.679384 -0.260218 0.057663
C    -12.548784 0.744770 0.502087
C    -11.032738 -2.423083 -0.827368
C    -9.814993 -1.539971 -0.551979
C    -10.218607 -0.277535 -0.034400
C    -15.057389 1.410532 0.909462
C    -16.274802 0.526752 0.634626
C    -15.871818 -0.733809 0.116870
C    -8.480642 -1.833731 -0.743826
C    -7.511883 -0.858671 -0.412683
C    -7.934968 0.397374 0.100473
C    -9.285567 0.702307 0.292961
C    -17.610524 0.820644 0.828014
C    -18.579554 -0.152992 0.503147
C    -18.155360 -1.406656 -0.013178
C    -16.805707 -1.712045 -0.211960
C    -11.136064 -2.788142 -2.325377
C    -10.999336 -3.710280 0.026970
C    -15.091869 2.697527 0.054824
C    -14.953630 1.776051 2.407323
H    -12.161488 1.698644 0.853494
H    -13.928268 -2.710574 -0.771496
H    -17.926614 1.783333 1.223750
H    -16.501214 -2.676829 -0.608108
H    -8.162859 -2.795877 -1.139464
H    -9.591620 1.668626 0.684192
H    -12.047102 -3.365400 -2.521716
H    -10.279088 -3.397348 -2.635549
H    -11.159890 -1.889150 -2.949416
H    -10.925146 -3.473875 1.093200
H    -10.140049 -4.333911 -0.245938
H    -11.907895 -4.303367 -0.129670
H    -14.043035 2.354170 2.603194
H    -14.928798 0.877225 3.031595
H    -15.811008 2.384595 2.717659
H    -14.183841 3.291473 0.211302
H    -15.951740 3.320392 0.327578
H    -15.165963 2.460797 -1.011331
H    -5.571863 -1.800751 -0.917731
H    -20.536810 0.796179 0.990008
S    -6.568925 1.454296 0.406712
C    -6.088961 -0.932927 -0.522098
C    -5.429940 0.198418 -0.107615
H    -21.705049 -1.408497 0.194147
