124
TIFBT-torsion-2-35
C    17.118676 -0.345608 -0.058588
C    17.907141 -1.554914 0.043265
C    17.843917 0.830441 -0.170886
N    17.441921 -2.802850 0.159661
N    19.955589 -2.686048 0.127221
S    18.750922 -3.796125 0.237657
H    19.740867 1.856344 -0.279830
H    17.310710 1.773029 -0.251388
C    19.266801 0.883278 -0.188040
C    19.361924 -1.490865 0.024817
C    20.038460 -0.245155 -0.093176
H    21.122275 -0.218459 -0.105033
C    0.411650 1.022051 -0.016438
C    1.267941 2.090622 -0.115357
S    1.313882 -0.508648 0.107599
C    7.357788 1.545595 -0.133481
C    6.648598 0.328124 -0.021947
C    7.324537 -0.895398 0.077223
C    8.713555 -0.882299 0.063263
C    9.422669 0.335143 -0.048270
C    8.746782 1.558647 -0.147567
C    9.674065 -2.067872 0.157124
C    11.029165 -1.363210 0.083860
C    10.856476 0.042980 -0.035996
C    6.397294 2.731245 -0.226471
C    5.042178 2.026714 -0.151927
C    5.214973 0.620339 -0.033112
C    12.291100 -1.921829 0.120683
C    13.417391 -1.072699 0.037308
C    13.221690 0.328915 -0.081773
C    11.949553 0.902932 -0.119975
C    3.780458 2.585612 -0.186281
C    2.653689 1.736784 -0.100923
C    2.849691 0.334386 0.014777
C    4.121720 -0.239539 0.051126
C    9.504416 -2.823906 1.494201
C    9.481664 -3.042345 -1.026739
C    6.590922 3.705769 0.957122
C    6.565716 3.487143 -1.563782
H    9.298140 2.492440 -0.233056
H    6.773197 -1.829162 0.163019
H    3.637152 3.659898 -0.276479
H    4.251274 -1.314410 0.140985
H    12.434591 -2.995982 0.212064
H    11.819942 1.977649 -0.211552
H    8.505690 -3.270614 1.562820
H    10.240262 -3.632045 1.577808
H    9.637376 -2.151112 2.347349
H    9.598716 -2.526641 -1.985147
H    10.216878 -3.854192 -0.982979
H    8.482406 -3.492309 -0.999820
H    7.564411 3.933786 -1.633410
H    6.431900 2.814263 -2.416732
H    5.829819 4.295311 -1.646760
H    7.590219 4.155607 0.929268
H    5.855760 4.517704 0.914022
H    6.474665 3.190134 1.915656
H    15.160851 -2.443903 0.139865
H    0.911933 3.109044 -0.193649
S    14.757733 1.172262 -0.167983
C    14.804046 -1.426146 0.055334
C    15.659536 -0.358517 -0.044309
C    -4.004740 0.882280 -0.002859
C    -3.303497 2.142342 0.082624
C    -3.183280 -0.232164 -0.092289
N    -3.874057 3.346434 0.177366
N    -1.370141 3.447334 0.163252
S    -2.664165 4.453721 0.249683
H    -1.241241 -1.118618 -0.184549
H    -3.634628 -1.217262 -0.162879
C    -1.771658 -0.174751 -0.101023
C    -1.843711 2.201535 0.073926
C    -1.043729 1.003144 -0.020114
C    -20.521368 -1.815297 -0.000903
C    -19.616263 -2.824021 -0.091425
S    -19.777620 -0.233246 0.110593
C    -13.578491 -1.788458 -0.096424
C    -14.383941 -0.631799 0.004109
C    -13.809392 0.642587 0.094595
C    -12.423489 0.741795 0.083315
C    -11.617969 -0.414808 -0.016975
C    -12.192819 -1.689544 -0.107800
C    -11.562512 2.002043 0.168999
C    -10.154500 1.409024 0.105509
C    -10.212492 -0.007575 -0.003543
C    -14.439954 -3.048658 -0.181488
C    -15.848025 -2.455629 -0.116007
C    -15.790610 -1.039868 -0.007667
C    -8.942361 2.068330 0.142135
C    -7.750188 1.312695 0.069591
C    -7.831581 -0.101319 -0.039166
C    -9.052817 -0.776631 -0.077160
C    -17.060493 -3.116457 -0.149942
C    -18.252373 -2.363912 -0.075146
C    -18.172659 -0.949572 0.032773
C    -16.949784 -0.273114 0.067728
C    -11.796902 2.754004 1.498529
C    -11.829397 2.946947 -1.024350
C    -14.171371 -3.994092 1.010988
C    -14.207068 -3.799965 -1.511637
H    -11.567772 -2.576520 -0.184892
H    -14.434455 1.529518 0.171873
H    -17.112411 -4.199851 -0.232782
H    -16.909608 0.809459 0.150613
H    -8.886847 3.151256 0.225683
H    -9.094545 -1.859013 -0.160309
H    -12.828783 3.118787 1.560766
H    -11.129247 3.619917 1.576267
H    -11.612358 2.101951 2.358164
H    -11.668037 2.433538 -1.977545
H    -11.162437 3.816052 -0.986596
H    -12.861909 3.314693 -1.004076
H    -13.175333 -4.164981 -1.575475
H    -14.392616 -3.147397 -2.370668
H    -14.874974 -4.665767 -1.589104
H    -13.138974 -4.362169 0.989280
H    -14.838519 -4.863133 0.973871
H    -14.331392 -3.481031 1.964597
H    -6.125995 2.821493 0.169504
H    -19.892615 -3.870469 -0.168222
S    -6.232038 -0.818354 -0.112645
C    -6.397910 1.777571 0.090923
C    -5.456541 0.781657 0.003481
H    -21.600720 -1.893107 0.008292
