124
TIFBT-torsion-1-30
C    17.110896 -0.517544 -0.442727
C    17.929639 -1.300144 0.445270
C    17.776590 0.304299 -1.330175
N    17.486568 -2.135246 1.391719
N    20.004149 -2.020669 1.246644
S    18.822241 -2.772605 2.107891
H    19.646927 1.026122 -2.146924
H    17.193969 0.924405 -2.005160
C    19.201528 0.364295 -1.409555
C    19.378721 -1.234489 0.361240
C    20.007902 -0.382794 -0.590689
H    21.090388 -0.341590 -0.643339
C    0.416209 0.962807 -0.047162
C    1.282953 2.023721 0.047039
S    1.305434 -0.572948 -0.207390
C    7.367550 1.436618 -0.072424
C    6.647631 0.225732 -0.184572
C    7.312883 -1.001000 -0.311915
C    8.702033 -0.997516 -0.325240
C    9.421844 0.213357 -0.213068
C    8.756804 1.439917 -0.085728
C    9.651977 -2.188719 -0.451282
C    11.013517 -1.494708 -0.396243
C    10.853755 -0.088991 -0.256347
C    6.417704 2.627665 0.054570
C    5.056315 1.933540 -0.000605
C    5.216534 0.527630 -0.140475
C    12.270003 -2.063092 -0.462665
C    13.404608 -1.225184 -0.388825
C    13.222685 0.177974 -0.256281
C    11.954363 0.760488 -0.183846
C    3.799643 2.500606 0.067760
C    2.665315 1.660540 -0.003139
C    2.848789 0.258755 -0.142331
C    4.115572 -0.323510 -0.212708
C    9.475319 -3.175409 0.724868
C    9.451237 -2.928098 -1.793319
C    6.618690 3.366048 1.397174
C    6.594009 3.615273 -1.120833
H    9.316254 2.368834 0.000603
H    6.753427 -1.929960 -0.397666
H    3.665954 3.574595 0.174736
H    4.235492 -1.397974 -0.319243
H    12.401456 -3.137727 -0.566691
H    11.835458 1.835196 -0.078005
H    8.472386 -3.617793 0.712280
H    10.203527 -3.991983 0.657705
H    9.614834 -2.671620 1.686564
H    9.572425 -2.246393 -2.641168
H    10.179598 -3.740305 -1.900356
H    8.448256 -3.367180 -1.847800
H    7.596802 4.057969 -1.107956
H    6.454650 3.112202 -2.082974
H    5.865594 4.431599 -1.052893
H    7.621727 3.804981 1.451776
H    5.890317 4.178108 1.504954
H    6.497543 2.683698 2.244461
H    15.141459 -2.606514 -0.541481
H    0.936143 3.042988 0.150375
S    14.768987 1.007451 -0.188625
C    14.792296 -1.585287 -0.435804
C    15.645304 -0.525383 -0.324754
C    -4.001898 0.856437 -0.001203
C    -3.290566 2.109163 0.104340
C    -3.189055 -0.262002 -0.115383
N    -3.852193 3.315348 0.222332
N    -1.348224 3.399175 0.197824
S    -2.634627 4.413012 0.307440
H    -1.255797 -1.162517 -0.223030
H    -3.647815 -1.242531 -0.200368
C    -1.777331 -0.214707 -0.129244
C    -1.830163 2.158047 0.090120
C    -1.038994 0.955635 -0.030463
C    -20.537291 -1.722830 0.061076
C    -19.639830 -2.737675 -0.036810
S    -19.781758 -0.146538 0.174929
C    -13.594857 -1.745298 -0.063784
C    -14.391563 -0.583286 0.044292
C    -13.807510 0.686620 0.136936
C    -12.420996 0.775942 0.120169
C    -11.624207 -0.386016 0.012250
C    -12.208569 -1.656264 -0.080728
C    -11.550646 2.029664 0.206916
C    -10.147199 1.426800 0.135586
C    -10.215805 0.011098 0.021311
C    -14.465680 -2.999000 -0.149615
C    -15.869178 -2.396159 -0.076087
C    -15.801156 -0.981235 0.037000
C    -8.930217 2.077262 0.169923
C    -7.743789 1.313413 0.089661
C    -7.835793 -0.099522 -0.024597
C    -9.061973 -0.765925 -0.060199
C    -17.086482 -3.048176 -0.107186
C    -18.272619 -2.287400 -0.024702
C    -18.182305 -0.874061 0.087808
C    -16.954482 -0.206488 0.119969
C    -11.774343 2.778512 1.540028
C    -11.815504 2.980730 -0.981998
C    -14.198841 -3.950583 1.038344
C    -14.243779 -3.747188 -1.483406
H    -11.590230 -2.547411 -0.163617
H    -14.425859 1.577716 0.220121
H    -17.146503 -4.130874 -0.193594
H    -16.906203 0.875470 0.206472
H    -8.866614 3.159426 0.257486
H    -9.111795 -1.847638 -0.147500
H    -12.803344 3.150392 1.607733
H    -11.100239 3.639381 1.618147
H    -11.590990 2.122102 2.396597
H    -11.661540 2.469607 -1.937642
H    -11.142229 3.844929 -0.943784
H    -12.845288 3.355716 -0.956327
H    -13.214958 -4.119327 -1.552894
H    -14.428250 -3.090227 -2.339315
H    -14.918190 -4.607910 -1.561133
H    -13.169203 -4.325938 1.010956
H    -14.872334 -4.814705 1.000981
H    -14.351161 -3.439804 1.994435
H    -6.108437 2.810105 0.189204
H    -19.923996 -3.781844 -0.116085
S    -6.241726 -0.827697 -0.107381
C    -6.388144 1.768507 0.107340
C    -5.454285 0.766274 0.011675
H    -21.617124 -1.792951 0.074583
