124
TIFBT-torsion-1-25
C    17.105224 -1.005078 -0.423894
C    17.885579 -0.543785 0.691842
C    17.796435 -1.596151 -1.460231
N    17.409258 0.033468 1.800341
N    19.920863 -0.218319 1.793645
S    18.712360 0.359343 2.747658
H    19.689072 -2.212957 -2.317397
H    17.236182 -1.960272 -2.316327
C    19.219110 -1.741370 -1.458999
C    19.330781 -0.690313 0.688226
C    19.991213 -1.300789 -0.416361
H    21.070877 -1.404127 -0.406629
C    0.434860 0.825421 -0.168932
C    1.318627 1.874617 -0.230902
S    1.298838 -0.732149 -0.120164
C    7.391860 1.174171 -0.330831
C    6.652172 -0.027881 -0.261894
C    7.296847 -1.271355 -0.220105
C    8.685604 -1.293331 -0.248558
C    9.425249 -0.091340 -0.318294
C    8.780810 1.151910 -0.359764
C    9.615548 -2.506325 -0.213020
C    10.988095 -1.834769 -0.273240
C    10.851983 -0.421211 -0.334104
C    6.462006 2.387179 -0.364089
C    5.089503 1.715506 -0.304800
C    5.226553 0.301398 -0.246290
C    12.235243 -2.427866 -0.273113
C    13.382346 -1.607153 -0.335366
C    13.225146 -0.196512 -0.390722
C    11.966078 0.411127 -0.393908
C    3.842507 2.307577 -0.303490
C    2.694691 1.485057 -0.243548
C    2.855185 0.074712 -0.187153
C    4.112003 -0.532819 -0.187155
C    9.439489 -3.310481 1.094789
C    9.384816 -3.427102 -1.432363
C    6.692669 3.305596 0.857113
C    6.637638 3.193953 -1.670349
H    9.355584 2.073932 -0.412811
H    6.722145 -2.193415 -0.166401
H    3.726454 3.388026 -0.347546
H    4.214262 -1.613467 -0.142953
H    12.348537 -3.508737 -0.227160
H    11.865157 1.491974 -0.437615
H    8.429766 -3.732769 1.157352
H    10.154030 -4.140698 1.137984
H    9.599712 -2.675942 1.972188
H    9.505556 -2.876438 -2.370685
H    10.098391 -4.259296 -1.429632
H    8.374231 -3.851457 -1.412179
H    7.647319 3.616394 -1.732049
H    6.477466 2.561219 -2.549108
H    5.923052 4.024166 -1.711634
H    7.703241 3.729923 0.837489
H    5.978943 4.137576 0.856048
H    6.572074 2.753148 1.794365
H    15.101916 -3.021622 -0.294693
H    0.988498 2.904006 -0.266539
S    14.783173 0.610744 -0.452790
C    14.765922 -1.991243 -0.349563
C    15.632300 -0.939806 -0.423912
C    -3.983778 0.797342 -0.082370
C    -3.252226 2.042289 -0.117966
C    -3.189390 -0.340013 -0.078290
N    -3.794046 3.263163 -0.128320
N    -1.289291 3.302767 -0.179422
S    -2.558808 4.343469 -0.171880
H    -1.271393 -1.278475 -0.101339
H    -3.664008 -1.316272 -0.050404
C    -1.777305 -0.317668 -0.106777
C    -1.791397 2.065384 -0.147963
C    -1.020049 0.844211 -0.141732
C    -20.556392 -1.504407 0.262140
C    -19.675529 -2.537771 0.227906
S    -19.775636 0.063675 0.265060
C    -13.616155 -1.646184 0.099784
C    -14.393915 -0.466941 0.133256
C    -13.789554 0.796847 0.135770
C    -12.401952 0.862656 0.104621
C    -11.624172 -0.316569 0.071764
C    -12.228805 -1.580689 0.068997
C    -11.511445 2.105279 0.099969
C    -10.118126 1.476451 0.059659
C    -10.209772 0.057547 0.044510
C    -14.506925 -2.888790 0.103234
C    -15.900340 -2.260019 0.144115
C    -15.809545 -0.841946 0.160982
C    -8.890824 2.107939 0.038946
C    -7.717175 1.321249 0.002898
C    -7.832311 -0.094566 -0.010280
C    -9.069001 -0.741858 0.009640
C    -17.127832 -2.893110 0.164105
C    -18.301414 -2.109647 0.201800
C    -18.188346 -0.693559 0.218126
C    -16.950089 -0.045045 0.198094
C    -11.712605 2.945330 1.381347
C    -11.771309 2.978442 -1.148244
C    -14.247002 -3.763160 1.350550
C    -14.305407 -3.727541 -1.178902
H    -11.624932 -2.485137 0.043233
H    -14.393441 1.701274 0.161412
H    -17.205262 -3.978071 0.151381
H    -16.884395 1.039372 0.211108
H    -8.809580 3.192405 0.049968
H    -9.136475 -1.826081 -0.001315
H    -12.735289 3.336918 1.431398
H    -11.024942 3.798849 1.396638
H    -11.532139 2.345001 2.278700
H    -11.633663 2.401821 -2.068442
H    -11.084072 3.832079 -1.173340
H    -12.794712 3.371262 -1.140242
H    -13.282778 -4.119300 -1.229323
H    -14.485696 -3.126224 -2.075630
H    -14.993161 -4.581029 -1.195292
H    -13.223639 -4.156163 1.342377
H    -14.934287 -4.616839 1.374894
H    -14.384705 -3.187363 2.271256
H    -6.057526 2.794325 -0.019009
H    -19.976470 -3.580226 0.220925
S    -6.250820 -0.852693 -0.054347
C    -6.354363 1.754243 -0.022968
C    -5.437315 0.732585 -0.053714
H    -21.637070 -1.556181 0.286487
