124
TIFBT-torsion-3-8
C    17.135639 -0.229260 0.238331
C    17.951254 -1.386721 -0.060775
C    17.833004 0.915480 0.591689
N    17.515262 -2.597529 -0.422988
N    20.023891 -2.452706 -0.285294
S    18.845982 -3.539836 -0.640703
H    19.704543 1.930167 0.953097
H    17.278563 1.818908 0.827665
C    19.253369 0.984630 0.666024
C    19.403186 -1.306351 0.017954
C    20.050327 -0.095021 0.388526
H    21.132522 -0.055433 0.441385
C    0.412570 0.870038 -0.075759
C    1.242313 1.909872 0.260793
S    1.349626 -0.591921 -0.471125
C    7.339406 1.466531 0.358480
C    6.659670 0.284625 -0.013528
C    7.363601 -0.885325 -0.328728
C    8.750993 -0.854830 -0.266402
C    9.430800 0.327238 0.105326
C    8.726888 1.497117 0.420507
C    9.738518 -1.984644 -0.558357
C    11.075735 -1.288209 -0.303339
C    10.870190 0.064274 0.083868
C    6.351981 2.596055 0.651788
C    5.014686 1.899568 0.397431
C    5.220330 0.547312 0.008595
C    12.349640 -1.810176 -0.406733
C    13.454855 -0.977571 -0.120963
C    13.226419 0.370300 0.263897
C    11.941971 0.906920 0.371231
C    3.740904 2.420856 0.502940
C    2.635573 1.587983 0.217363
C    2.864088 0.240720 -0.170077
C    4.148660 -0.295316 -0.279143
C    9.531225 -3.175071 0.405033
C    9.624975 -2.466246 -2.022354
C    6.466585 3.076920 2.115944
C    6.558210 3.787019 -0.311177
H    9.255766 2.403707 0.706223
H    6.834727 -1.792002 -0.614192
H    3.572093 3.453341 0.799929
H    4.303575 -1.328628 -0.576502
H    12.518275 -2.843184 -0.702031
H    11.787202 1.940676 0.667202
H    8.543046 -3.625952 0.256972
H    10.284530 -3.951472 0.228273
H    9.608352 -2.855615 1.449155
H    9.769256 -1.637380 -2.722613
H    10.379930 -3.231271 -2.237534
H    8.638447 -2.905682 -2.210461
H    7.546550 4.237749 -0.163818
H    6.480121 3.468128 -1.355406
H    5.805116 4.563368 -0.133244
H    7.453277 3.516211 2.303447
H    5.711843 3.841874 2.332142
H    6.322908 2.247702 2.815898
H    15.228941 -2.276196 -0.431882
H    0.861622 2.884762 0.534422
S    14.741185 1.202507 0.565402
C    14.848533 -1.300227 -0.161615
C    15.678089 -0.260552 0.173757
C    -3.977577 0.701334 -0.304433
C    -3.316355 1.909767 0.093134
C    -3.158654 -0.372996 -0.576465
N    -3.933358 3.051035 0.417465
N    -1.426684 3.191451 0.555719
S    -2.756238 4.129487 0.793104
H    -1.190197 -1.205156 -0.749872
H    -3.611511 -1.316653 -0.866438
C    -1.742060 -0.303123 -0.503138
C    -1.863554 1.987595 0.172425
C    -1.043619 0.837956 -0.139566
C    -20.566563 -1.559932 0.172773
C    -19.738408 -2.020683 1.145766
S    -19.719052 -0.716025 -1.107224
C    -13.676885 -1.157180 0.939523
C    -14.395473 -0.616135 -0.149751
C    -13.736713 0.061814 -1.183466
C    -12.354830 0.189476 -1.110903
C    -11.636294 -0.351446 -0.021558
C    -12.295069 -1.029396 1.012222
C    -11.413032 0.876779 -2.099898
C    -10.057154 0.654338 -1.428484
C    -10.212447 -0.065833 -0.213183
C    -14.618746 -1.844401 1.928556
C    -15.974585 -1.622717 1.256762
C    -15.819491 -0.901696 0.042066
C    -8.808661 1.057112 -1.860398
C    -7.679003 0.743706 -1.073889
C    -7.855495 0.021179 0.136076
C    -9.115790 -0.389183 0.580735
C    -17.223114 -2.025788 1.688791
C    -18.353472 -1.710999 0.904089
C    -18.176411 -0.989401 -0.306681
C    -16.916359 -0.577880 -0.751072
C    -11.736120 2.382362 -2.229682
C    -11.469858 0.204530 -3.490110
C    -14.562495 -1.171391 3.318438
C    -14.295010 -3.349735 2.059275
H    -11.736804 -1.443820 1.848896
H    -14.295004 0.476622 -2.019932
H    -17.349540 -2.578096 2.617410
H    -16.801600 -0.026614 -1.680269
H    -8.681419 1.610260 -2.788306
H    -9.230923 -0.939557 1.510366
H    -12.737015 2.529083 -2.652153
H    -11.016086 2.877196 -2.891797
H    -11.700443 2.878508 -1.254633
H    -11.242892 -0.864091 -3.420812
H    -10.745790 0.664650 -4.172576
H    -12.466292 0.314684 -3.933702
H    -13.294281 -3.495889 2.482340
H    -14.329894 -3.846421 1.084431
H    -15.015102 -3.844568 2.721374
H    -13.566087 -1.280748 3.762291
H    -15.286518 -1.631451 4.001000
H    -14.790056 -0.102972 3.248464
H    -5.952432 1.595796 -2.192196
H    -20.084941 -2.566751 2.017023
S    -6.314685 -0.252571 0.934347
C    -6.297220 1.052990 -1.318284
C    -5.450424 0.607704 -0.348740
H    -21.642696 -1.659782 0.117089
