124
TIFBT-torsion-1-4
C    17.112997 -0.413002 0.304905
C    17.909495 -1.455709 -0.294576
C    17.812272 0.620262 0.902277
N    17.444791 -2.533106 -0.935689
N    19.962669 -2.437242 -0.832699
S    18.760911 -3.393469 -1.418535
H    19.702760 1.511911 1.455806
H    17.255521 1.428799 1.366787
C    19.236970 0.667081 0.956372
C    19.361228 -1.401084 -0.235125
C    20.020029 -0.314388 0.406284
H    21.103459 -0.286947 0.442921
C    0.414822 1.000821 0.033798
C    1.276346 2.066642 -0.052611
S    1.311605 -0.532679 0.171689
C    7.364008 1.505088 0.026122
C    6.649877 0.289801 0.128650
C    7.320966 -0.935485 0.238085
C    8.710117 -0.926267 0.243145
C    9.424150 0.288949 0.140391
C    8.753183 1.514181 0.031126
C    9.665755 -2.114703 0.350195
C    11.023939 -1.414303 0.294099
C    10.857184 -0.007570 0.171372
C    6.408319 2.693362 -0.081597
C    5.050280 1.992676 -0.026653
C    5.217350 0.585983 0.096214
C    12.283170 -1.977592 0.346031
C    13.413778 -1.133331 0.274568
C    13.224453 0.270433 0.158883
C    11.953747 0.848062 0.101816
C    3.790765 2.554921 -0.081489
C    2.660542 1.709072 -0.014004
C    2.850885 0.306572 0.108032
C    4.120536 -0.270828 0.164794
C    9.476609 -2.869298 1.685457
C    9.485772 -3.089415 -0.835401
C    6.587211 3.668018 1.104200
C    6.598437 3.448092 -1.416659
H    9.308246 2.446365 -0.047914
H    6.765912 -1.867707 0.316579
H    3.651757 3.629456 -0.175368
H    4.245754 -1.345899 0.258294
H    12.420776 -3.052519 0.437780
H    11.829179 1.923361 0.009608
H    8.475769 -3.313023 1.741479
H    10.208907 -3.679590 1.779081
H    9.600449 -2.196288 2.539832
H    9.617090 -2.574780 -1.792508
H    10.217727 -3.903599 -0.781556
H    8.484777 -3.536097 -0.821263
H    7.599270 3.891955 -1.471870
H    6.475299 2.775110 -2.271123
H    5.866041 4.258212 -1.510836
H    7.588025 4.115149 1.090746
H    5.854957 4.481914 1.049886
H    6.455523 3.153242 2.061212
H    15.154524 -2.509604 0.392198
H    0.924460 3.085460 -0.142331
S    14.765452 1.107989 0.085760
C    14.800954 -1.489197 0.307913
C    15.653080 -0.422959 0.210494
C    -4.002905 0.874726 0.006431
C    -3.297756 2.132009 -0.085770
C    -3.184472 -0.241321 0.102838
N    -3.865389 3.337016 -0.185552
N    -1.361751 3.432088 -0.170929
S    -2.653251 4.441333 -0.261637
H    -1.246678 -1.134201 0.190254
H    -3.638369 -1.224969 0.177155
C    -1.772945 -0.187668 0.111129
C    -1.837548 2.187452 -0.077329
C    -1.040412 0.987234 0.024032
C    -20.525804 -1.783122 -0.044897
C    -19.623208 -2.794858 0.036617
S    -19.778185 -0.201731 -0.138401
C    -13.583061 -1.773530 0.063117
C    -14.385646 -0.614004 -0.026704
C    -13.807976 0.659901 -0.103030
C    -12.421866 0.755722 -0.088587
C    -11.619211 -0.403748 0.001011
C    -12.197185 -1.677998 0.077768
C    -11.557784 2.014746 -0.160113
C    -10.151262 1.417725 -0.101247
C    -10.212765 0.000251 -0.006461
C    -14.447602 -3.032542 0.133475
C    -15.854169 -2.435563 0.071765
C    -15.793276 -1.018880 -0.021601
C    -8.937503 2.074425 -0.130297
C    -7.747202 1.315215 -0.064456
C    -7.832127 -0.099597 0.030512
C    -9.055013 -0.772289 0.060750
C    -17.068228 -3.093872 0.096600
C    -18.258226 -2.337799 0.027608
C    -18.175033 -0.922594 -0.065283
C    -16.950531 -0.248667 -0.090972
C    -11.823741 2.947672 1.042846
C    -11.788900 2.781218 -1.481887
C    -14.218794 -3.798320 1.456048
C    -14.179136 -3.966023 -1.068414
H    -11.574328 -2.567189 0.146585
H    -14.430846 1.549042 -0.172150
H    -17.122797 -4.177954 0.167945
H    -16.907697 0.834620 -0.162407
H    -8.879317 3.157989 -0.203046
H    -9.099425 -1.855336 0.133153
H    -12.855317 3.318171 1.025282
H    -11.154583 3.815464 1.015031
H    -11.664759 2.423834 1.990752
H    -11.604943 2.137817 -2.348142
H    -11.119107 3.646310 -1.549770
H    -12.819836 3.149113 -1.541411
H    -13.147674 -4.336824 -1.048748
H    -14.336192 -3.442564 -2.016849
H    -14.848450 -4.833782 -1.041643
H    -13.188016 -4.166380 1.517838
H    -14.888823 -4.663340 1.523249
H    -14.404353 -3.154386 2.321567
H    -6.119283 2.820899 -0.149027
H    -19.902130 -3.841407 0.101894
S    -6.234394 -0.821246 0.097742
C    -6.393795 1.776955 -0.080524
C    -5.454878 0.777936 -0.002069
H    -21.605315 -1.858313 -0.056840
