124
TIFBT-torsion-2-16
C    17.124030 -0.980647 -0.055935
C    18.072019 0.082066 -0.313853
C    17.679146 -2.226207 0.193392
N    17.784291 1.360508 -0.578639
N    20.256382 0.889836 -0.556417
S    19.217550 2.139451 -0.791133
H    19.414886 -3.492376 0.409560
H    17.020824 -3.066167 0.394240
C    19.080327 -2.479703 0.203168
C    19.503240 -0.186871 -0.301733
C    20.000452 -1.493170 -0.037577
H    21.069607 -1.673150 -0.033021
C    0.402229 0.081448 0.221909
C    1.097922 -1.080633 0.458894
S    1.505969 1.439235 -0.067968
C    7.199455 -1.427590 0.355814
C    6.666202 -0.144920 0.095190
C    7.505202 0.946436 -0.166868
C    8.878352 0.735981 -0.164351
C    9.411472 -0.546674 0.096244
C    8.572564 -1.638056 0.358491
C    9.993486 1.750131 -0.419120
C    11.237150 0.873265 -0.268838
C    10.871274 -0.467174 0.032807
C    6.084367 -2.442171 0.609761
C    4.840269 -1.565883 0.457981
C    5.206347 -0.223925 0.157484
C    12.563672 1.235997 -0.389563
C    13.560926 0.251511 -0.208397
C    13.172988 -1.081193 0.092156
C    11.834178 -1.457421 0.216286
C    3.514776 -1.929460 0.576097
C    2.517280 -0.944539 0.388985
C    2.902716 0.390614 0.091496
C    4.244114 0.765591 -0.024806
C    9.895063 2.348164 -1.840673
C    9.973635 2.883430 0.631284
C    6.106113 -3.575769 -0.440189
C    6.181754 -3.039639 2.031570
H    8.988725 -2.623040 0.558326
H    7.088944 1.931270 -0.366958
H    3.225401 -2.952480 0.806206
H    4.521578 1.791586 -0.250453
H    12.854482 2.258300 -0.619981
H    11.556994 -2.482243 0.446770
H    8.967860 2.921344 -1.956627
H    10.735016 3.025244 -2.034602
H    9.907904 1.561147 -2.601363
H    10.043144 2.481154 1.646934
H    10.814761 3.569083 0.476511
H    9.047654 3.465313 0.556121
H    7.109188 -3.612244 2.148913
H    6.167561 -2.252284 2.791864
H    5.341989 -3.717187 2.225016
H    7.032432 -4.157085 -0.364206
H    5.265365 -4.262120 -0.286001
H    6.037168 -3.173773 -1.455991
H    15.476614 1.334641 -0.503541
H    0.611841 -2.020164 0.698773
S    14.576705 -2.118341 0.271588
C    14.982477 0.397385 -0.285237
C    15.681482 -0.760653 -0.057236
C    -4.004301 0.385197 0.144086
C    -3.189650 1.563389 0.324878
C    -3.290185 -0.794266 -0.021509
N    -3.636497 2.812334 0.489074
N    -1.134293 2.655699 0.512144
S    -2.319784 3.782508 0.643642
H    -1.433439 -1.848237 -0.186861
H    -3.833248 -1.721562 -0.178212
C    -1.879378 -0.874041 -0.015404
C    -1.733722 1.475382 0.339785
C    -1.049336 0.220515 0.176946
C    -20.699443 -0.673351 -0.324631
C    -19.894212 -1.757422 -0.470709
S    -19.809184 0.816054 -0.084702
C    -13.786467 -1.323207 -0.286856
C    -14.478473 -0.102820 -0.118097
C    -13.785754 1.099422 0.074593
C    -12.396894 1.062460 0.095727
C    -11.704879 -0.157881 -0.072990
C    -12.397902 -1.360475 -0.265604
C    -11.420310 2.222928 0.286992
C    -10.075118 1.500517 0.204065
C    -10.267349 0.107460 -0.006618
C    -14.763377 -2.483475 -0.478951
C    -16.108644 -1.760850 -0.397186
C    -15.917279 -0.368712 -0.185645
C    -8.805978 2.033679 0.306148
C    -7.691118 1.171759 0.197849
C    -7.906530 -0.216570 -0.012151
C    -9.186171 -0.764676 -0.116608
C    -17.378106 -2.295138 -0.501731
C    -18.493072 -1.436070 -0.395237
C    -18.279650 -0.047516 -0.183706
C    -16.998346 0.501185 -0.076785
C    -11.612258 2.898134 1.663737
C    -11.566186 3.271660 -0.838577
C    -14.618441 -3.532115 0.646795
C    -14.570101 -3.158801 -1.855386
H    -11.859842 -2.297012 -0.394974
H    -14.323829 2.035955 0.203748
H    -17.532493 -3.359664 -0.663727
H    -16.855727 1.566043 0.085013
H    -8.647833 3.097579 0.466974
H    -9.330550 -1.829295 -0.277708
H    -12.605153 3.357236 1.735156
H    -10.865930 3.686520 1.815534
H    -11.512187 2.171784 2.476515
H    -11.432993 2.813763 -1.823864
H    -10.819212 4.066079 -0.726625
H    -12.558350 3.736862 -0.808548
H    -13.577306 -3.618333 -1.926059
H    -14.669244 -2.432397 -2.668226
H    -15.316545 -3.946994 -2.007988
H    -13.626398 -3.997738 0.617754
H    -15.365578 -4.326399 0.534454
H    -14.752350 -3.073981 1.631875
H    -5.930391 2.503894 0.425318
H    -20.268502 -2.763593 -0.628346
S    -6.382559 -1.080124 -0.113492
C    -6.300868 1.499455 0.270442
C    -5.458857 0.424610 0.125015
H    -21.781130 -0.644992 -0.341641
