124
TIFBT-torsion-3-0
C    17.119109 -0.346016 -0.000493
C    17.906838 -1.560087 -0.000839
C    17.845140 0.834896 -0.000271
N    17.440806 -2.813135 -0.001077
N    19.954644 -2.695507 -0.001238
S    18.749208 -3.810218 -0.001493
H    19.742819 1.865217 -0.000164
H    17.312546 1.781260 -0.000008
C    19.268115 0.888141 -0.000364
C    19.361729 -1.495579 -0.000931
C    20.039079 -0.244738 -0.000685
H    21.122952 -0.217784 -0.000753
C    0.411743 1.024667 0.000764
C    1.269609 2.096934 0.001028
S    1.313767 -0.511925 0.000374
C    7.359218 1.551282 0.000725
C    6.649116 0.329231 0.000432
C    7.324200 -0.898791 0.000056
C    8.713287 -0.885487 -0.000024
C    9.423305 0.336534 0.000270
C    8.748282 1.564544 0.000650
C    9.672991 -2.075441 -0.000423
C    11.028662 -1.368066 -0.000317
C    10.856942 0.043358 0.000092
C    6.399527 2.741233 0.001098
C    5.043843 2.033868 0.000952
C    5.215676 0.622365 0.000576
C    12.290268 -1.928645 -0.000566
C    13.417196 -1.076253 -0.000408
C    13.222430 0.330536 0.000000
C    11.950647 0.906595 0.000255
C    3.782390 2.594461 0.001129
C    2.655043 1.742094 0.000930
C    2.850177 0.334933 0.000572
C    4.121768 -0.240907 0.000390
C    9.491221 -2.944134 1.264641
C    9.491048 -2.943421 -1.265953
C    6.581437 3.609188 1.266639
C    6.581339 3.609912 -1.263958
H    9.300306 2.501870 0.000873
H    6.772191 -1.836115 -0.000172
H    3.639644 3.672602 0.001409
H    4.250667 -1.319602 0.000105
H    12.433081 -3.006772 -0.000879
H    11.821753 1.985293 0.000566
H    8.491652 -3.393732 1.285619
H    10.225836 -3.757456 1.284489
H    9.617016 -2.347826 2.173923
H    9.616716 -2.346598 -2.174915
H    10.225662 -3.756729 -1.286361
H    8.491477 -3.393009 -1.287046
H    7.580910 4.059526 -1.284928
H    6.455561 3.013581 -2.173225
H    5.846698 4.423217 -1.283850
H    7.581009 4.058790 1.287787
H    5.846796 4.422479 1.287055
H    6.455732 3.012335 2.175573
H    15.159764 -2.452386 -0.000923
H    0.914224 3.118488 0.001276
S    14.759094 1.177137 0.000124
C    14.803667 -1.430875 -0.000611
C    15.659907 -0.359191 -0.000378
C    -4.005694 0.885904 0.000595
C    -3.304859 2.148972 0.000696
C    -3.183333 -0.231432 0.000580
N    -3.876667 3.356138 0.000806
N    -1.373303 3.458414 0.000937
S    -2.668326 4.467185 0.000758
H    -1.242422 -1.121730 0.000632
H    -3.633786 -1.219457 0.000443
C    -1.771957 -0.173713 0.000655
C    -1.844793 2.208621 0.000777
C    -1.043480 1.006917 0.000740
C    -20.520428 -1.821790 -0.001398
C    -19.614029 -2.833408 -0.000072
S    -19.778495 -0.234958 -0.002741
C    -13.576903 -1.794064 0.000941
C    -14.383819 -0.634071 -0.000495
C    -13.810755 0.644198 -0.001587
C    -12.424841 0.743946 -0.001237
C    -11.617895 -0.415988 0.000181
C    -12.191238 -1.694625 0.001288
C    -11.565195 2.008086 -0.002224
C    -10.156376 1.413501 -0.001215
C    -10.212807 -0.007344 0.000186
C    -14.436932 -3.058149 0.001931
C    -15.845845 -2.463496 0.000848
C    -15.790129 -1.043532 -0.000559
C    -8.944854 2.074968 -0.001541
C    -7.751744 1.317269 -0.000474
C    -7.831675 -0.101018 0.000895
C    -9.052236 -0.778558 0.001259
C    -17.057639 -3.126425 0.001099
C    -18.250552 -2.371792 -0.000068
C    -18.172515 -0.953247 -0.001467
C    -16.950339 -0.274634 -0.001729
C    -11.817125 2.860216 1.262085
C    -11.816356 2.857730 -1.268357
C    -14.185654 -3.907726 1.268047
C    -14.184785 -3.910299 -1.262281
H    -11.565001 -2.584085 0.002385
H    -14.437010 1.533630 -0.002687
H    -17.108225 -4.213042 0.002175
H    -16.911477 0.811155 -0.002808
H    -8.890550 3.161172 -0.002612
H    -9.092789 -1.864171 0.002312
H    -12.849723 3.227705 1.282383
H    -11.150520 3.730206 1.281581
H    -11.644015 2.276659 2.171862
H    -11.642688 2.272388 -2.176880
H    -11.149742 3.727682 -1.289153
H    -12.848942 3.225175 -1.290007
H    -13.152270 -4.278113 -1.282615
H    -14.357742 -3.326660 -2.172036
H    -14.851553 -4.780214 -1.281959
H    -13.153152 -4.275492 1.289841
H    -14.852433 -4.777602 1.289032
H    -14.359242 -3.322239 2.176493
H    -6.129002 2.830903 -0.001561
H    -19.889177 -3.882985 0.000889
S    -6.231347 -0.819992 0.002005
C    -6.399863 1.783759 -0.000616
C    -5.457393 0.784980 0.000552
H    -21.599794 -1.899941 -0.001688
