124
TIFBT-torsion-2-3
C    17.112561 -0.354453 0.246719
C    17.908648 -1.526864 -0.046875
C    17.829246 0.780720 0.592289
N    17.452264 -2.732444 -0.401290
N    19.963159 -2.628031 -0.268407
S    18.766945 -3.697745 -0.615622
H    19.717755 1.766639 0.944788
H    17.290092 1.694479 0.823857
C    19.250668 0.826959 0.663969
C    19.361859 -1.469886 0.029097
C    20.029394 -0.267199 0.391549
H    21.112181 -0.245051 0.442455
C    0.411314 1.015654 -0.047167
C    1.254583 2.045240 0.282195
S    1.319385 -0.462903 -0.431302
C    7.345350 1.502302 0.372287
C    6.645605 0.329174 0.009575
C    7.329935 -0.853928 -0.299428
C    8.717849 -0.845485 -0.240106
C    9.417548 0.327598 0.122715
C    8.733234 1.510797 0.431456
C    9.686245 -1.992990 -0.527145
C    11.035164 -1.317050 -0.278666
C    10.852415 0.041041 0.100411
C    6.376956 2.649723 0.659807
C    5.027869 1.973468 0.412825
C    5.210677 0.615415 0.033072
C    12.300123 -1.860466 -0.380937
C    13.419400 -1.044379 -0.102160
C    13.213722 0.309375 0.274688
C    11.938422 0.867695 0.380740
C    3.763252 2.516898 0.516750
C    2.643072 1.701480 0.238491
C    2.848582 0.345470 -0.134448
C    4.124484 -0.211335 -0.244784
C    9.461413 -3.174460 0.443206
C    9.562110 -2.480838 -1.988260
C    6.502278 3.138018 2.120660
C    6.600667 3.830906 -0.311119
H    9.277282 2.410632 0.710034
H    6.785909 -1.753742 -0.578089
H    3.613077 3.554576 0.805695
H    4.261341 -1.249763 -0.533209
H    12.451239 -2.897919 -0.670111
H    11.801156 1.905673 0.670511
H    8.465750 -3.609996 0.299394
H    10.201646 -3.964034 0.269509
H    9.545625 -2.850475 1.485395
H    9.718791 -1.658344 -2.693342
H    10.303922 -3.259445 -2.200475
H    8.568064 -2.904817 -2.172189
H    7.596487 4.266500 -0.168516
H    6.515326 3.506582 -1.353093
H    5.860553 4.620490 -0.136944
H    7.496374 3.562328 2.303592
H    5.760470 3.916526 2.333328
H    6.346476 2.315673 2.826128
H    15.171332 -2.373853 -0.407931
H    0.890859 3.030449 0.544507
S    14.742487 1.118465 0.568615
C    14.807505 -1.390112 -0.143049
C    15.654645 -0.362194 0.184590
C    -3.999796 0.862902 -0.082349
C    -3.297862 2.108549 -0.291778
C    -3.181836 -0.237281 0.130914
N    -3.862584 3.296727 -0.525350
N    -1.355710 3.392074 -0.486896
S    -2.644944 4.385280 -0.701687
H    -1.233203 -1.106338 0.341150
H    -3.636755 -1.208966 0.298375
C    -1.768669 -0.180671 0.152042
C    -1.839706 2.166114 -0.269478
C    -1.045754 0.986440 -0.032875
C    -20.523638 -1.781704 0.152688
C    -19.621487 -2.775548 0.360847
S    -19.775304 -0.225048 -0.139384
C    -13.580921 -1.761639 0.259025
C    -14.382939 -0.622315 0.023791
C    -13.804642 0.631697 -0.211605
C    -12.418478 0.728167 -0.207809
C    -11.616468 -0.411035 0.027775
C    -12.195018 -1.665460 0.262912
C    -11.553749 1.968115 -0.435439
C    -10.147563 1.383369 -0.297291
C    -10.209865 -0.011133 -0.026276
C    -14.445969 -3.001537 0.486750
C    -15.852281 -2.416434 0.350342
C    -15.790753 -1.022779 0.079394
C    -8.933424 2.031630 -0.402537
C    -7.743747 1.287107 -0.235845
C    -7.829514 -0.104798 0.034304
C    -9.052736 -0.768956 0.141958
C    -17.066643 -3.065822 0.457839
C    -18.256294 -2.323893 0.294268
C    -18.172476 -0.931694 0.023909
C    -16.947665 -0.266922 -0.086425
C    -11.822983 3.045932 0.638735
C    -11.780998 2.560741 -1.844407
C    -14.217256 -3.595106 1.895042
C    -14.177781 -4.078655 -0.588348
H    -11.572603 -2.539150 0.443574
H    -14.427074 1.505379 -0.392163
H    -17.121767 -4.132278 0.665053
H    -16.904325 0.798734 -0.293663
H    -8.874489 3.097691 -0.609513
H    -9.097837 -1.834416 0.349236
H    -12.854476 3.410911 0.571414
H    -11.153728 3.903414 0.502972
H    -11.666718 2.646582 1.645865
H    -11.594445 1.812832 -2.621600
H    -11.111163 3.410596 -2.019527
H    -12.811842 2.917509 -1.953023
H    -13.146357 -4.444162 -0.522306
H    -14.334848 -3.678495 -1.595030
H    -14.847214 -4.936073 -0.452704
H    -13.186440 -3.952381 2.002563
H    -14.887177 -4.444897 2.070431
H    -14.402835 -2.847578 2.672840
H    -6.114355 2.771505 -0.496029
H    -19.900882 -3.805413 0.557422
S    -6.232477 -0.811439 0.202066
C    -6.389917 1.744003 -0.300264
C    -5.452196 0.763174 -0.091168
H    -21.603185 -1.857281 0.150414
