124
TIFBT-torsion-2-4
C    17.109398 -0.369897 0.275671
C    17.907872 -1.509795 -0.121293
C    17.823502 0.728849 0.727871
N    17.454174 -2.677687 -0.587657
N    19.964390 -2.584639 -0.434585
S    18.770704 -3.618325 -0.884466
H    19.709519 1.679003 1.178318
H    17.282443 1.616773 1.041091
C    19.244553 0.769064 0.809749
C    19.360693 -1.459278 -0.033981
C    20.025505 -0.294836 0.440911
H    21.108036 -0.276903 0.498468
C    0.411331 1.023814 0.003042
C    1.249427 2.020123 0.427963
S    1.319065 -0.420855 -0.486316
C    7.340521 1.467849 0.514484
C    6.643129 0.329248 0.051386
C    7.329423 -0.823732 -0.352287
C    8.717067 -0.820203 -0.285955
C    9.414477 0.318287 0.177368
C    8.728126 1.471333 0.581039
C    9.687308 -1.939239 -0.664538
C    11.034801 -1.286188 -0.354666
C    10.849644 0.034957 0.137099
C    6.370215 2.587416 0.891666
C    5.022627 1.934671 0.581055
C    5.207862 0.612872 0.090692
C    12.300521 -1.818553 -0.497589
C    13.418151 -1.028587 -0.146371
C    13.210078 0.288316 0.342919
C    11.933988 0.835262 0.490706
C    3.757423 2.468658 0.721029
C    2.639022 1.680441 0.367793
C    2.846670 0.359054 -0.113297
C    4.123638 -0.187200 -0.261515
C    9.459490 -3.198016 0.202465
C    9.569147 -2.302696 -2.161868
C    6.487104 2.951582 2.388903
C    6.599236 3.845635 0.024206
H    9.270432 2.344768 0.936430
H    6.787160 -1.696959 -0.708231
H    3.605806 3.479228 1.093348
H    4.262252 -1.198137 -0.634431
H    12.453477 -2.827766 -0.872920
H    11.794894 1.844956 0.866702
H    8.464553 -3.620145 0.019042
H    10.200740 -3.970104 -0.034117
H    9.539787 -2.962489 1.268431
H    9.727776 -1.423769 -2.794734
H    10.312415 -3.060312 -2.435958
H    8.576177 -2.710247 -2.384617
H    7.594268 4.267355 0.208093
H    6.519528 3.609572 -1.041660
H    5.858175 4.618215 0.259784
H    7.479990 3.358968 2.612372
H    5.743822 3.709592 2.661948
H    6.327683 2.073010 3.022092
H    15.172173 -2.326787 -0.556676
H    0.883101 2.980417 0.769755
S    14.737140 1.070172 0.710287
C    14.806644 -1.369178 -0.210767
C    15.651789 -0.372514 0.206363
C    -3.997225 0.862005 -0.057408
C    -3.293669 2.092227 -0.340985
C    -3.182799 -0.221964 0.236825
N    -3.853525 3.262784 -0.660551
N    -1.345441 3.357810 -0.597315
S    -2.630338 4.335050 -0.894525
H    -1.231882 -1.075049 0.518327
H    -3.640694 -1.181143 0.459306
C    -1.768765 -0.164414 0.269578
C    -1.836690 2.150201 -0.305113
C    -1.047865 0.990704 0.021668
C    -20.523512 -1.773858 0.110144
C    -19.625980 -2.741119 0.432279
S    -19.769182 -0.251019 -0.314609
C    -13.584614 -1.729407 0.360474
C    -14.381489 -0.619554 0.000090
C    -13.798362 0.607128 -0.342825
C    -12.412551 0.706103 -0.320008
C    -11.615684 -0.403807 0.039996
C    -12.199064 -1.630787 0.383148
C    -11.543154 1.919933 -0.648370
C    -10.140157 1.353601 -0.426606
C    -10.208147 -0.008667 -0.024692
C    -14.454331 -2.943031 0.689435
C    -15.857415 -2.376790 0.467347
C    -15.790180 -1.015638 0.064608
C    -8.923976 1.990717 -0.569682
C    -7.738007 1.267121 -0.310338
C    -7.829396 -0.093005 0.088841
C    -9.054766 -0.745426 0.236770
C    -17.073774 -3.015321 0.611136
C    -18.259694 -2.295113 0.351533
C    -18.170179 -0.935281 -0.049949
C    -16.943311 -0.281693 -0.197844
C    -11.833731 3.095757 0.311318
C    -11.741797 2.373681 -2.112188
C    -14.255417 -3.396024 2.153411
C    -14.163638 -4.119300 -0.269625
H    -11.580535 -2.481869 0.659629
H    -14.416907 1.458187 -0.619283
H    -17.133217 -4.056964 0.918930
H    -16.895599 0.759071 -0.506037
H    -8.860729 3.032206 -0.876406
H    -9.104202 -1.786470 0.543346
H    -12.863425 3.451102 0.188136
H    -11.161370 3.937141 0.107281
H    -11.698297 2.795477 1.355206
H    -11.539682 1.554643 -2.809701
H    -11.068467 3.203929 -2.354918
H    -12.770201 2.716432 -2.275371
H    -13.134010 -4.474905 -0.146337
H    -14.299035 -3.819427 -1.313633
H    -14.836132 -4.960575 -0.065337
H    -13.227092 -3.738981 2.316880
H    -14.928906 -4.226026 2.396753
H    -14.457370 -2.576531 2.850440
H    -6.103047 2.722111 -0.680207
H    -19.909470 -3.747837 0.721198
S    -6.236052 -0.778733 0.351684
C    -6.382829 1.717319 -0.393499
C    -5.449838 0.761234 -0.077228
H    -21.602760 -1.851582 0.092186
