124
TIFBT-torsion-3-20
C    17.171125 0.049133 -0.084848
C    18.011914 -1.123854 -0.192700
C    17.843949 1.257435 0.009916
N    17.601979 -2.392231 -0.295318
N    20.107973 -2.161717 -0.302351
S    18.953283 -3.325752 -0.388324
H    19.693934 2.368676 0.084025
H    17.269877 2.175444 0.093394
C    19.263085 1.374641 0.004768
C    19.462409 -0.994009 -0.197068
C    20.083530 0.281702 -0.096071
H    21.165078 0.357446 -0.101126
C    0.420038 0.656361 0.126898
C    1.228904 1.762215 0.217037
S    1.389330 -0.832590 -0.005898
C    7.336591 1.494554 0.142787
C    6.681898 0.245927 0.042969
C    7.411228 -0.945712 -0.065716
C    8.798252 -0.869380 -0.073468
C    9.452869 0.379256 0.025875
C    8.723603 1.570846 0.134988
C    9.810182 -2.010171 -0.181184
C    11.132748 -1.244391 -0.130201
C    10.898132 0.152657 -0.008824
C    6.324683 2.635365 0.250321
C    5.002086 1.869785 0.197058
C    5.236811 0.472668 0.075715
C    12.418053 -1.745088 -0.186473
C    13.505690 -0.845466 -0.121617
C    13.248319 0.545981 -0.000651
C    11.952126 1.061589 0.057154
C    3.716903 2.370747 0.250621
C    2.628814 1.471454 0.182390
C    2.886569 0.079667 0.061195
C    4.182579 -0.436053 0.006798
C    9.681252 -2.990049 1.006827
C    9.654019 -2.775774 -1.514426
C    6.479373 3.399569 1.584568
C    6.455092 3.616441 -0.936500
H    9.233107 2.528895 0.211116
H    6.901740 -1.903753 -0.142013
H    3.526162 3.437435 0.343029
H    4.359535 -1.503854 -0.086431
H    12.608839 -2.811750 -0.279142
H    11.775201 2.129437 0.149897
H    8.703487 -3.485614 0.996163
H    10.452345 -3.767241 0.952631
H    9.789358 -2.467537 1.962593
H    9.742804 -2.099347 -2.370438
H    10.424395 -3.549845 -1.608660
H    8.675652 -3.267500 -1.566633
H    7.432874 4.111931 -0.924171
H    6.348062 3.094939 -1.892937
H    5.684011 4.393647 -0.882409
H    7.457733 3.891133 1.638416
H    5.708938 4.173594 1.678709
H    6.389523 2.722252 2.439765
H    15.307870 -2.136168 -0.250330
H    0.827764 2.762923 0.305247
S    14.745603 1.458403 0.060796
C    14.906516 -1.135543 -0.161195
C    15.714024 -0.029971 -0.075996
C    -3.982466 0.328527 0.128327
C    -3.335762 1.609031 0.237948
C    -3.119279 -0.750020 0.002378
N    -3.970421 2.778758 0.343332
N    -1.473505 3.005774 0.346155
S    -2.819086 3.944191 0.434568
H    -1.140218 -1.548039 -0.091628
H    -3.535181 -1.743842 -0.126593
C    -1.711323 -0.630138 0.011790
C    -1.882815 1.737927 0.238286
C    -1.033088 0.576061 0.127928
C    -20.649843 -1.147556 -0.263197
C    -20.016752 0.021216 -0.542623
S    -19.546368 -2.446497 0.141431
C    -13.915486 0.541565 -0.364497
C    -14.416081 -0.741158 -0.047438
C    -13.550768 -1.793354 0.278912
C    -12.183794 -1.543957 0.283058
C    -11.683120 -0.261331 -0.034098
C    -12.548816 0.791107 -0.360372
C    -11.044509 -2.512679 0.600877
C    -9.823200 -1.609811 0.421779
C    -10.222451 -0.295288 0.050292
C    -15.055120 1.509835 -0.682590
C    -16.276093 0.606439 -0.504415
C    -15.877915 -0.706138 -0.132790
C    -8.489908 -1.928991 0.574822
C    -7.517685 -0.926332 0.351706
C    -7.936111 0.380723 -0.017021
C    -9.285771 0.710965 -0.168935
C    -17.610848 0.926335 -0.659362
C    -18.583800 -0.073165 -0.442797
C    -18.164393 -1.378855 -0.071960
C    -16.815753 -1.710842 0.086995
C    -11.020122 -3.696330 -0.392213
C    -11.145030 -3.042513 2.049020
C    -14.953994 2.040294 -2.130467
C    -15.080572 2.693133 0.310930
H    -12.157697 1.776562 -0.603707
H    -13.941788 -2.778915 0.522092
H    -17.923175 1.928808 -0.943633
H    -16.514970 -2.715432 0.371223
H    -8.175371 -2.930701 0.859292
H    -9.588582 1.716182 -0.448972
H    -11.930974 -4.299216 -0.299334
H    -10.162921 -4.350343 -0.194150
H    -10.948401 -3.342461 -1.425581
H    -11.163129 -2.218813 2.769699
H    -10.289719 -3.685909 2.286165
H    -12.057922 -3.634541 2.182794
H    -14.170192 3.296794 0.218452
H    -15.152290 2.338824 1.344143
H    -15.938284 3.346475 0.112948
H    -14.041477 2.633068 -2.263507
H    -15.809633 2.683149 -2.367852
H    -14.934890 1.216869 -2.851456
H    -5.587447 -1.930010 0.739625
H    -20.537668 0.933657 -0.813610
S    -6.567196 1.459852 -0.210900
C    -6.096230 -1.017941 0.446629
C    -5.429972 0.150378 0.160530
H    -21.714570 -1.341148 -0.266877
