124
TIFBT-torsion-2-17
C    17.131717 -0.953340 -0.043302
C    18.078096 0.133741 -0.174337
C    17.689235 -2.216539 0.080100
N    17.787980 1.432100 -0.306191
N    20.261717 0.969632 -0.300227
S    19.220301 2.233762 -0.415478
H    19.427798 -3.492936 0.184609
H    17.032193 -3.075179 0.181535
C    19.091322 -2.465162 0.082149
C    19.510266 -0.130394 -0.171254
C    20.009978 -1.455730 -0.040120
H    21.079802 -1.631751 -0.040046
C    0.401545 0.019693 0.140157
C    1.103085 -1.158303 0.259558
S    1.504656 1.402861 -0.011371
C    7.205163 -1.474050 0.187604
C    6.669051 -0.173085 0.054340
C    7.506120 0.942484 -0.082330
C    8.880092 0.737631 -0.083461
C    9.415992 -0.563307 0.049876
C    8.579087 -1.678929 0.186462
C    9.993610 1.776594 -0.216203
C    11.239430 0.893155 -0.141037
C    10.876045 -0.472632 0.014752
C    6.091876 -2.513358 0.320493
C    4.845599 -1.630252 0.245928
C    5.209094 -0.262950 0.090043
C    12.565688 1.270913 -0.205523
C    13.565154 0.276280 -0.114137
C    13.179647 -1.081731 0.041244
C    11.841150 -1.473339 0.107477
C    3.520732 -2.008318 0.311151
C    2.521239 -1.011640 0.217664
C    2.903626 0.347972 0.062738
C    4.244483 0.736940 -0.000821
C    9.911080 2.519220 -1.568909
C    9.954050 2.794029 0.946282
C    6.131637 -3.530460 -0.842200
C    6.175258 -3.256222 1.672945
H    8.997427 -2.677859 0.288792
H    7.087682 1.941313 -0.184676
H    3.233180 -3.050528 0.431080
H    4.519974 1.781517 -0.117427
H    12.854668 2.312570 -0.324694
H    11.565826 -2.517488 0.226482
H    8.982540 3.097857 -1.637305
H    10.750010 3.216002 -1.679594
H    9.938159 1.815905 -2.407256
H    10.012325 2.288140 1.915244
H    10.793423 3.495463 0.875447
H    9.026021 3.376892 0.919617
H    7.104093 -3.834485 1.741179
H    6.147989 -2.553013 2.511359
H    5.336694 -3.953503 1.783857
H    7.060008 -4.112894 -0.816308
H    5.292694 -4.232500 -0.771257
H    6.072572 -3.024265 -1.810954
H    15.479379 1.390557 -0.269904
H    0.624852 -2.122818 0.389952
S    14.585776 -2.127199 0.130983
C    14.986881 0.434062 -0.156550
C    15.688309 -0.739073 -0.040719
C    -4.007636 0.347681 0.085179
C    -3.182453 1.527602 0.182208
C    -3.302300 -0.845735 -0.002723
N    -3.618511 2.788399 0.265496
N    -1.118813 2.613128 0.285271
S    -2.294127 3.756262 0.348899
H    -1.462029 -1.927292 -0.093587
H    -3.852882 -1.777754 -0.089713
C    -1.893189 -0.936713 0.003462
C    -1.726991 1.428470 0.194505
C    -1.050254 0.160859 0.112793
C    -20.712889 -0.611706 -0.186106
C    -19.916726 -1.709712 -0.259931
S    -19.809947 0.884135 -0.061080
C    -13.804720 -1.311095 -0.153678
C    -14.486487 -0.076366 -0.068077
C    -13.783533 1.131150 0.032692
C    -12.394867 1.084907 0.046347
C    -11.713056 -0.149767 -0.039314
C    -12.416336 -1.357629 -0.139971
C    -11.408462 2.248442 0.147208
C    -10.069245 1.511467 0.106628
C    -10.273191 0.108437 -0.002442
C    -14.791517 -2.474496 -0.254933
C    -16.130810 -1.737360 -0.215308
C    -15.927659 -0.335156 -0.105821
C    -8.795560 2.040698 0.161292
C    -7.687781 1.164627 0.107158
C    -7.914859 -0.233492 -0.001436
C    -9.199176 -0.777689 -0.057408
C    -17.404912 -2.267849 -0.271545
C    -18.512729 -1.394673 -0.218683
C    -18.287552 0.003792 -0.109352
C    -17.001482 0.548735 -0.051791
C    -11.585332 3.021499 1.473576
C    -11.555129 3.215423 -1.049224
C    -14.645493 -3.441158 0.941807
C    -14.613685 -3.247909 -1.580900
H    -11.886165 -2.305248 -0.205583
H    -14.313722 2.078742 0.098185
H    -17.568351 -3.340036 -0.355223
H    -16.849835 1.621319 0.031954
H    -8.628476 3.112120 0.244373
H    -9.352494 -1.849952 -0.140847
H    -12.574440 3.491953 1.518888
H    -10.832398 3.813064 1.563600
H    -11.484365 2.354216 2.335401
H    -11.432323 2.687594 -2.000287
H    -10.801742 4.010091 -0.999135
H    -12.543739 3.689074 -1.045712
H    -13.624691 -3.718755 -1.625598
H    -14.713933 -2.580742 -2.442896
H    -15.366772 -4.039348 -1.671397
H    -13.657012 -3.915180 0.939131
H    -15.399072 -4.235713 0.891662
H    -14.768744 -2.912932 1.892592
H    -5.915934 2.495943 0.226839
H    -20.299548 -2.721684 -0.341677
S    -6.397947 -1.113877 -0.051219
C    -6.294807 1.485917 0.146565
C    -5.461551 0.396867 0.072804
H    -21.794447 -0.576225 -0.196714
