124
TIFBT-torsion-3-35
C    17.119273 -0.343554 -0.028864
C    17.907714 -1.555508 0.034381
C    17.844563 0.835641 -0.100475
N    17.442449 -2.806659 0.108235
N    19.956165 -2.688637 0.084779
S    18.751427 -3.801887 0.155776
H    19.741579 1.864756 -0.171372
H    17.311392 1.780356 -0.150492
C    19.267474 0.889135 -0.112983
C    19.362524 -1.490768 0.021006
C    20.039108 -0.241762 -0.054141
H    21.122940 -0.214601 -0.062919
C    0.411330 1.020147 -0.006849
C    1.268543 2.091065 -0.069284
S    1.314178 -0.513822 0.073820
C    7.358376 1.548181 -0.070587
C    6.649050 0.327778 0.001025
C    7.324903 -0.898151 0.064995
C    8.713959 -0.884469 0.056007
C    9.423189 0.335894 -0.015837
C    8.747403 1.561823 -0.079568
C    9.674406 -2.072292 0.116125
C    11.029598 -1.365620 0.068156
C    10.856990 0.043596 -0.008623
C    6.397971 2.736001 -0.130957
C    5.042755 2.029287 -0.084370
C    5.215429 0.620000 -0.007356
C    12.291533 -1.925004 0.090748
C    13.417892 -1.073608 0.036306
C    13.222253 0.331006 -0.039791
C    11.950125 0.905827 -0.063270
C    3.780986 2.588635 -0.108737
C    2.654183 1.737204 -0.056118
C    2.850108 0.332232 0.020209
C    4.122048 -0.242311 0.045723
C    9.501159 -2.868785 1.429025
C    9.485272 -3.010069 -1.097505
C    6.586129 3.673143 1.083326
C    6.572240 3.533160 -1.443289
H    9.298840 2.497864 -0.134674
H    6.773480 -1.834196 0.119992
H    3.637610 3.665087 -0.167503
H    4.251585 -1.319335 0.104361
H    12.435006 -3.001459 0.149161
H    11.820553 1.982846 -0.121970
H    8.502196 -3.317177 1.481292
H    10.236703 -3.679225 1.489906
H    9.631888 -2.222343 2.302648
H    9.604978 -2.465304 -2.039365
H    10.220308 -3.822986 -1.076619
H    8.485917 -3.460503 -1.087137
H    7.571224 3.981641 -1.494552
H    6.442223 2.887150 -2.317335
H    5.836699 4.343595 -1.504363
H    7.585490 4.123607 1.074007
H    5.851055 4.486029 1.062295
H    6.465673 3.127854 2.024787
H    15.161323 -2.447198 0.100106
H    0.912549 3.110953 -0.123849
S    14.758346 1.176731 -0.096478
C    14.804559 -1.427331 0.046446
C    15.660105 -0.357049 -0.018200
C    -4.004999 0.881205 0.015871
C    -3.305031 2.142798 -0.045408
C    -3.183560 -0.235370 0.065923
N    -3.878383 3.347890 -0.102198
N    -1.374580 3.451435 -0.115590
S    -2.670692 4.458155 -0.160064
H    -1.241922 -1.124064 0.101893
H    -3.635344 -1.221142 0.123471
C    -1.771963 -0.177367 0.057435
C    -1.845270 2.202822 -0.053742
C    -1.043971 1.002164 -0.000743
C    -20.521227 -1.815217 0.019808
C    -19.616777 -2.820459 -0.108220
S    -19.776627 -0.237672 0.179171
C    -13.578925 -1.785388 -0.110346
C    -14.383625 -0.632621 0.032052
C    -13.808367 0.638162 0.160626
C    -12.422530 0.737717 0.144586
C    -11.617766 -0.414974 0.002235
C    -12.193317 -1.686134 -0.126352
C    -11.560932 1.994632 0.265663
C    -10.153405 1.404279 0.173142
C    -10.212179 -0.008158 0.019412
C    -14.441037 -3.042143 -0.231883
C    -15.848645 -2.451551 -0.139863
C    -15.790415 -1.040078 0.014361
C    -8.941102 2.062527 0.221121
C    -7.749436 1.310167 0.114332
C    -7.831516 -0.100052 -0.036591
C    -9.053073 -0.774133 -0.086827
C    -17.061400 -3.110884 -0.189198
C    -18.252736 -2.361151 -0.083810
C    -18.172214 -0.951100 0.069854
C    -16.949043 -0.276175 0.120658
C    -11.786219 2.702300 1.620858
C    -11.835983 2.978272 -0.894019
C    -14.166436 -4.025880 0.927788
C    -14.215091 -3.749727 -1.586970
H    -11.568889 -2.570137 -0.235906
H    -14.432817 1.522158 0.269967
H    -17.113980 -4.190990 -0.307151
H    -16.908227 0.803117 0.238602
H    -8.885099 3.142314 0.338264
H    -9.095337 -1.853411 -0.203376
H    -12.817650 3.064605 1.702118
H    -11.118016 3.565304 1.722581
H    -11.595871 2.022276 2.457250
H    -11.680825 2.496688 -1.864689
H    -11.169039 3.845990 -0.832051
H    -12.868439 3.344636 -0.854734
H    -13.183748 -4.112442 -1.667953
H    -14.404918 -3.069525 -2.423330
H    -14.883512 -4.612553 -1.689209
H    -13.134116 -4.392767 0.888924
H    -14.833675 -4.893419 0.865684
H    -14.321750 -3.544216 1.898401
H    -6.124609 2.816293 0.242123
H    -19.893704 -3.863831 -0.217806
S    -6.232566 -0.813287 -0.150749
C    -6.396959 1.774664 0.137771
C    -5.456968 0.781920 0.011872
H    -21.600532 -1.893265 0.031902
