124
TIFBT-torsion-3-2
C    17.118497 -0.341633 0.019424
C    17.907376 -1.548613 -0.104471
C    17.843365 0.832923 0.148478
N    17.442560 -2.794804 -0.239635
N    19.956250 -2.676869 -0.213174
S    18.751918 -3.785821 -0.337825
H    19.740022 1.858183 0.268093
H    17.309831 1.773712 0.246035
C    19.266267 0.886420 0.162015
C    19.362173 -1.483906 -0.089547
C    20.038312 -0.239817 0.046490
H    21.122143 -0.212605 0.055401
C    0.409955 1.013670 0.054284
C    1.266283 2.081063 0.166890
S    1.313670 -0.514788 -0.092359
C    7.356542 1.541212 0.154499
C    6.647885 0.324939 0.027558
C    7.324365 -0.896459 -0.091957
C    8.713402 -0.882471 -0.082660
C    9.422015 0.333754 0.044345
C    8.745571 1.555138 0.163982
C    9.674415 -2.065798 -0.197248
C    11.029243 -1.361260 -0.118217
C    10.855991 0.042883 0.022917
C    6.395445 2.724573 0.268252
C    5.040625 2.020081 0.188041
C    5.214102 0.615784 0.048024
C    12.291415 -1.918363 -0.167505
C    13.417402 -1.069749 -0.075356
C    13.221163 0.329811 0.065091
C    11.948770 0.902289 0.115955
C    3.778522 2.577277 0.235163
C    2.652239 1.728673 0.141886
C    2.849004 0.328597 0.003389
C    4.121261 -0.243745 -0.045350
C    9.486785 -3.057775 0.972758
C    9.500825 -2.802209 -1.544739
C    6.567838 3.460878 1.615958
C    6.584181 3.716589 -0.901513
H    9.296534 2.487997 0.261350
H    6.773416 -1.829299 -0.189474
H    3.634581 3.649968 0.341780
H    4.251398 -1.316996 -0.152096
H    12.435303 -2.990952 -0.275181
H    11.818750 1.975439 0.223864
H    8.487833 -3.508207 0.942543
H    10.222549 -3.868221 0.914583
H    9.606595 -2.556143 1.938265
H    9.630310 -2.116810 -2.388336
H    10.237081 -3.608357 -1.642731
H    8.502259 -3.248779 -1.616534
H    7.583113 4.167021 -0.870378
H    6.465232 3.214991 -1.867143
H    5.848368 4.527044 -0.843985
H    7.566367 3.907398 1.688714
H    5.831496 4.267026 1.713354
H    6.437543 2.775407 2.459369
H    15.161404 -2.438055 -0.203970
H    0.909487 3.097388 0.265468
S    14.756937 1.172873 0.158711
C    14.804214 -1.421917 -0.103170
C    15.659328 -0.355287 0.009522
C    -4.003446 0.876214 0.001415
C    -3.305384 2.134609 0.107783
C    -3.184779 -0.240071 -0.073903
N    -3.882522 3.335707 0.200185
N    -1.377639 3.441686 0.233144
S    -2.676335 4.444452 0.302457
H    -1.241611 -1.126382 -0.124837
H    -3.639770 -1.221646 -0.167421
C    -1.772632 -0.181777 -0.054739
C    -1.846447 2.195139 0.127588
C    -1.045546 0.995806 0.042284
C    -20.519085 -1.812401 -0.091604
C    -19.620572 -2.793052 0.183942
S    -19.767112 -0.265462 -0.423276
C    -13.582938 -1.757564 0.224709
C    -14.381002 -0.632084 -0.080221
C    -13.799745 0.613991 -0.348187
C    -12.414606 0.716446 -0.306911
C    -11.616551 -0.409064 -0.002336
C    -12.198054 -1.655425 0.265891
C    -11.547244 1.950037 -0.557987
C    -10.143946 1.377108 -0.355599
C    -10.210065 -0.005899 -0.031465
C    -14.450628 -2.990933 0.476516
C    -15.853961 -2.418041 0.273763
C    -15.788603 -1.036154 -0.051191
C    -8.929310 2.025817 -0.451198
C    -7.742523 1.293625 -0.221021
C    -7.831776 -0.088286 0.097370
C    -9.056117 -0.751939 0.198224
C    -17.068980 -3.067911 0.370382
C    -18.255420 -2.338417 0.140825
C    -18.167791 -0.957881 -0.182851
C    -16.942288 -0.292694 -0.282564
C    -11.851395 3.068397 0.464159
C    -11.734456 2.485448 -1.995451
C    -14.263120 -3.525450 1.914246
C    -14.146392 -4.109894 -0.544901
H    -11.578646 -2.518491 0.500011
H    -14.419186 1.477096 -0.582015
H    -17.127039 -4.125389 0.618734
H    -16.896011 0.763926 -0.531289
H    -8.867932 3.083258 -0.697924
H    -9.103889 -1.809018 0.444258
H    -12.881556 3.426054 0.352045
H    -11.181015 3.922640 0.314265
H    -11.723780 2.709889 1.490498
H    -11.522960 1.708035 -2.736477
H    -11.062162 3.330385 -2.184457
H    -12.762639 2.833531 -2.148412
H    -13.116360 -4.467953 -0.432567
H    -14.273818 -3.751868 -1.571445
H    -14.817011 -4.963952 -0.394682
H    -13.235005 -3.873701 2.067513
H    -14.935580 -4.370140 2.103983
H    -14.474489 -2.747485 2.654717
H    -6.110411 2.774097 -0.487838
H    -19.902573 -3.815392 0.413336
S    -6.238040 -0.780670 0.341497
C    -6.388164 1.752280 -0.265483
C    -5.456394 0.782264 0.005958
H    -21.597808 -1.892780 -0.123735
