472

C           46.56       4.3         90.72       
C           47.27       4.82        89.66       
S           47.66       3.6         91.81       
H           49.47       5.08        89.07       
H           46.77       5.33        88.87       
C           48.7        4.64        89.72       
C           49.09       4.0         90.83       
C           42.24       6.5         90.23       
C           43.15       5.8         91.06       
N           42.82       6.51        88.96       
C           44.07       5.88        88.98       
C           43.3        5.32        92.37       
O           42.47       5.29        93.3        
O           44.64       5.67        87.93       
C           44.84       3.67        93.35       
C           42.51       7.39        87.81       
H           43.3104     8.11108     87.64415    
H           41.56       7.94        87.91       
H           42.35       6.85        86.82       
H           45.88       3.71        93.7        
H           44.57519    2.63937     93.11381    
H           44.31       3.99        94.22       
N           44.54       4.53        92.28       
C           44.35       5.42        90.32       
C           45.14       4.68        91.03       
C           38.62       7.99        90.75       
C           39.29       7.96        91.88       
S           39.73       7.54        89.5        
H           41.23       7.25        92.72       
H           38.9        8.45        92.8        
C           40.54       7.26        91.87       
C           40.99       7.15        90.58       
C           34.94       10.15       89.25       
C           35.65       10.57       90.43       
C           35.5        9.0         88.75       
N           37.41       10.63       91.93       
N           36.53       11.56       92.11       
N           35.45       11.59       91.26       
C           36.71       12.45       93.24       
H           34.99       8.69        87.88       
H           36.87       7.29        88.73       
H           37.77893    12.56178    93.42165    
H           36.26       13.44       92.92       
H           36.17733    12.10909    94.12778    
C           36.67       8.26        89.21       
C           36.89       9.91        90.9        
C           37.43       8.71        90.31       
C           32.29       12.76       87.86       
C           32.15       11.61       87.21       
S           33.67       12.6        88.95       
H           33.08       9.59        87.06       
H           31.42       11.47       86.42       
C           33.04       10.59       87.57       
C           33.83       10.89       88.62       
C           29.45       15.8        85.32       
C           30.42       15.66       86.36       
N           29.23       14.56       84.84       
C           29.95       13.53       85.49       
C           31.23       16.36       87.39       
O           31.15       17.52       87.83       
O           29.88       12.38       85.19       
C           32.7        15.71       89.2        
C           28.33       14.06       83.79       
H           27.4118     13.70292    84.25638    
H           28.75       13.29       83.15       
H           28.15       14.79       83.07       
H           33.73       15.43       89.11       
H           32.26188    15.38326    90.14308    
H           32.78       16.81       89.17       
N           31.95       15.34       88.07       
C           30.66       14.26       86.55       
C           31.63       14.04       87.53       
C           27.91       19.03       83.95       
C           29.11       19.38       84.55       
S           27.55       17.34       83.99       
H           30.58       18.23       85.74       
H           29.48       20.4        84.58       
C           29.65       18.24       85.2        
C           29.03       17.08       84.86       
C           24.87       21.52       82.09       
C           26.22       21.73       81.87       
C           24.57       20.36       82.8        
N           28.44       21.44       82.11       
N           28.12       22.47       81.38       
N           26.82       22.82       81.3        
C           29.14       23.29       80.76       
H           23.53       19.96       82.83       
H           25.2        18.78       84.02       
H           30.0541     23.02157    81.2896     
H           29.22       23.07       79.65       
H           28.97439    24.35564    80.91841    
C           25.57       19.58       83.4        
C           27.22       21.0        82.46       
C           26.91       19.88       83.29       
C           21.72       23.81       81.18       
C           22.64       23.89       80.22       
S           22.37       22.76       82.38       
H           24.65       23.22       79.73       
H           22.55       24.62       79.41       
C           23.83       23.11       80.39       
C           23.83       22.37       81.53       
C           18.99       27.64       80.37       
C           19.18       26.46       81.07       
N           19.91       27.68       79.37       
C           20.66       26.46       79.34       
C           18.68       25.7        82.24       
O           17.74       25.79       83.0        
O           21.37       26.14       78.38       
C           19.4        23.61       83.39       
C           20.02       28.62       78.29       
H           20.81741    29.29189    78.60749    
H           20.2        28.05       77.35       
H           19.03       29.17       78.09       
H           20.28       23.05       83.82       
H           18.65998    22.86998    83.08529    
H           19.06       24.28       84.24       
N           19.66       24.62       82.33       
C           20.31       25.72       80.54       
C           20.61       24.67       81.31       
C           15.89       30.03       80.59       
C           17.11       30.73       80.73       
S           16.29       28.36       80.39       
H           19.32       30.45       80.57       
H           17.11       31.8        80.75       
C           18.3        29.99       80.64       
C           18.0        28.65       80.6        
C           11.82       31.51       79.86       
C           12.82       32.43       80.38       
C           12.24       30.22       79.79       
N           14.88       33.12       80.74       
N           14.04       34.16       80.67       
N           12.76       33.77       80.53       
C           14.43       35.54       81.13       
H           11.56       29.53       79.48       
H           13.73       28.73       79.97       
H           15.18137    35.93618    80.44693    
H           13.56       36.27       81.1        
H           14.74115    35.50543    82.17407    
C           13.54       29.79       80.11       
C           14.17       31.96       80.59       
C           14.59       30.56       80.49       
C           8.02        31.85       78.89       
C           8.39        33.04       79.42       
S           9.39        30.8        78.93       
H           10.16       33.87       80.46       
H           7.65        33.71       79.71       
C           9.77        33.04       79.85       
C           10.41       31.92       79.66       
C           4.89        28.85       76.57       
C           5.18        30.1        77.05       
N           6.02        28.12       76.87       
C           6.98        28.84       77.61       
C           4.69        31.45       77.1        
O           3.69        32.0        76.68       
O           7.89        28.29       78.17       
C           5.72        33.63       77.52       
C           6.67        27.09       76.03       
H           7.32441     27.49719    75.25925    
H           5.92        26.49       75.55       
H           7.23        26.34       76.64       
H           6.61        34.22       77.6        
H           5.0202      34.01236    78.26309    
H           5.17        33.96       76.59       
N           5.81        32.22       77.67       
C           6.45        30.18       77.78       
C           6.74        31.45       78.28       
C           2.22        28.26       73.74       
C           2.61        27.12       74.35       
S           3.18        29.53       74.46       
H           3.85        26.37       76.07       
H           2.23        26.16       74.1        
C           3.52        27.21       75.48       
C           3.93        28.47       75.65       
C           0.45        28.74       69.75       
C           0.36        29.76       70.71       
C           1.09        27.68       70.22       
N           0.98        30.91       72.61       
N           0.36        31.74       71.73       
N           -0.02       31.09       70.62       
C           -0.48       32.8        72.24       
H           1.29        26.85       69.55       
H           2.19        26.54       71.65       
H           0.07948     33.37382    72.97879    
H           -0.86       33.42       71.36       
H           -1.38167    32.38948    72.6945     
C           1.67        27.51       71.5        
C           1.06        29.69       71.97       
C           1.61        28.48       72.47       
C           -0.67       28.5        65.95       
C           -1.43       29.42       66.59       
S           0.42        27.77       67.14       
H           -1.58       30.42       68.57       
H           -2.17       30.01       66.07       
C           -1.12       29.64       67.96       
C           -0.2        28.76       68.41       
C           -3.25       27.26       62.08       
C           -2.01       27.42       62.59       
N           -4.07       28.12       62.76       
C           -3.41       28.49       63.97       
C           -0.64       27.01       62.44       
O           -0.02       26.46       61.56       
O           -3.95       29.06       64.9        
C           1.5         27.26       63.9        
C           -5.57       28.3        62.66       
H           -6.03353    27.69885    63.44221    
H           -5.91       27.93       61.69       
H           -5.75       29.38       62.77       
H           1.62        26.64       64.77       
H           2.15463     28.12556    64.00183    
H           1.82        26.62       63.02       
N           0.04        27.48       63.69       
C           -2.06       28.03       63.86       
C           -0.84       28.04       64.6        
C           -4.5        24.87       59.28       
C           -3.17       25.13       59.07       
S           -5.05       25.71       60.66       
H           -1.67       26.56       59.78       
H           -2.55       24.54       58.41       
C           -2.67       26.16       59.9        
C           -3.62       26.63       60.8        
C           -6.77       21.33       58.05       
C           -5.4        21.55       57.76       
C           -7.24       22.41       58.65       
N           -3.39       22.48       57.73       
N           -3.44       21.29       57.13       
N           -4.61       20.66       57.08       
C           -2.45       20.89       56.23       
H           -8.31       22.46       59.11       
H           -7.07       24.3        59.64       
H           -1.47946    20.95239    56.7222     
H           -2.64       19.83       55.99       
H           -2.50537    21.51287    55.33722    
C           -6.56       23.6        59.03       
C           -4.67       22.69       58.11       
C           -5.27       23.79       58.79       
C           -9.32       18.27       58.07       
C           -8.12       17.79       57.79       
S           -9.12       20.01       58.14       
H           -6.09       18.44       57.58       
H           -7.88       16.77       57.69       
C           -7.06       18.76       57.69       
C           -7.45       20.06       57.93       
C           -12.23      14.42       58.14       
C           -12.05      15.73       58.38       
N           -11.03      13.88       57.61       
C           -10.07      15.0        57.38       
C           -12.68      16.89       59.0        
O           -13.77      17.16       59.44       
O           -8.91       14.84       56.89       
C           -12.23      19.27       59.04       
C           -10.64      12.53       57.33       
H           -10.31125   12.45139    56.29373    
H           -11.36      11.78       57.43       
H           -9.82       12.19       57.95       
H           -11.75      20.03       58.43       
H           -12.21561   19.60818    60.07611    
H           -13.27      19.16       58.8        
N           -11.68      17.95       58.86       
C           -10.72      16.14       58.0        
C           -10.55      17.52       58.2        
C           -15.38      11.98       58.68       
C           -15.5       13.09       59.45       
S           -13.95      12.12       57.69       
H           -14.24      14.99       59.88       
H           -16.35      13.31       60.12       
C           -14.43      14.05       59.33       
C           -13.4       13.61       58.48       
C           -18.31      8.65        58.4        
C           -17.15      8.75        57.52       
C           -18.42      9.78        59.25       
N           -15.18      9.55        56.81       
N           -15.47      8.36        56.32       
N           -16.68      7.82        56.64       
C           -14.43      7.57        55.66       
H           -19.28      9.85        59.9        
H           -17.67      11.57       60.09       
H           -13.48703   8.10987     55.74638    
H           -14.29      6.69        56.34       
H           -14.73607   7.39917     54.6279     
C           -17.49      10.87       59.31       
C           -16.18      9.84        57.65       
C           -16.32      10.91       58.58       
C           -21.39      6.11        58.77       
C           -20.75      5.93        57.58       
S           -20.58      7.37        59.62       
H           -18.91      6.52        56.63       
H           -20.93      5.19        56.84       
C           -19.55      6.64        57.45       
C           -19.36      7.64        58.35       
C           -25.72      4.0         58.27       
C           -24.83      4.63        59.08       
N           -25.06      3.72        57.11       
C           -23.69      4.14        57.24       
C           -24.7       5.18        60.4        
O           -25.44      5.24        61.32       
O           -22.98      3.97        56.22       
C           -22.72      5.66        61.71       
C           -25.52      3.36        55.8        
H           -25.90127   4.2952      55.38995    
H           -24.71      2.95        55.19       
H           -26.21      2.59        55.87       
H           -21.87      6.32        61.86       
H           -22.49427   4.6442      62.03449    
H           -23.37      6.03        62.38       
N           -23.34      5.68        60.44       
C           -23.56      4.74        58.48       
C           -22.69      5.53        59.23       
C           -29.53      4.14        59.46       
C           -29.35      3.2         58.51       
S           -28.01      4.82        59.82       
H           -27.8       2.27        57.35       
H           -30.18      2.58        58.13       
C           -28.0       3.04        58.03       
C           -27.07      3.82        58.71       
C           -32.93      5.06        62.11       
C           -32.96      4.0         61.21       
C           -31.78      5.77        62.08       
N           -32.21      2.56        59.65       
N           -33.39      2.28        60.11       
N           -33.91      3.08        60.99       
C           -34.25      1.35        59.48       
H           -31.63      6.64        62.74       
H           -29.84      6.22        61.21       
H           -33.61512   0.47703     59.32849    
H           -35.1       1.12        60.07       
H           -34.52937   1.75115     58.50577    
C           -30.7       5.52        61.16       
C           -31.89      3.67        60.37       
C           -30.68      4.43        60.32       
C           -35.8       7.15        63.53       
C           -36.22      5.75        63.68       
S           -34.2       7.08        62.96       
H           -35.39      3.78        63.17       
H           -37.23      5.49        64.04       
C           -35.16      4.8         63.31       
C           -34.05      5.4         62.94       
C           -39.64      9.45        65.11       
C           -38.41      9.51        64.52       
N           -39.95      8.13        65.45       
C           -38.9       7.27        64.94       
C           -37.55      10.41       63.85       
O           -37.51      11.63       63.63       
O           -39.04      6.05        64.95       
C           -35.53      10.08       62.48       
C           -40.64      7.72        66.68       
H           -39.92048   7.7689      67.49732    
H           -41.53      8.36        66.84       
H           -40.96      6.68        66.59       
H           -35.31      9.31        61.65       
H           -34.60942   10.40878    62.96221    
H           -36.03      10.89       61.93       
N           -36.48      9.54        63.4        
C           -37.88      8.19        64.44       
C           -36.65      8.31        63.89       
C           -42.0       12.53       64.57       
C           -42.78      11.43       64.7        
S           -40.35      12.1        64.88       
H           -42.56      9.3         65.25       
H           -43.86      11.47       64.69       
C           -42.03      10.26       65.1        
C           -40.64      10.4        65.04       
C           -43.09      16.41       62.84       
C           -42.09      16.3        63.79       
C           -43.76      15.22       62.54       
N           -40.76      15.26       65.31       
N           -40.48      16.54       65.16       
N           -41.26      17.23       64.28       
C           -39.19      17.1        65.64       
H           -44.52      15.22       61.74       
H           -44.0       13.14       62.94       
H           -38.50131   16.31606    65.95504    
H           -38.74      17.67       64.79       
H           -39.35053   17.81192    66.44963    
C           -43.43      13.99       63.19       
C           -41.7       14.99       64.36       
C           -42.36      13.83       64.11       
C           -44.83      19.39       60.94       
C           -43.92      19.88       61.77       
S           -44.8       17.69       61.04       
H           -42.23      19.16       63.04       
H           -43.81      20.94       61.87       
C           -43.14      18.91       62.44       
C           -43.59      17.63       62.22       
C           -46.55      23.55       59.2        
C           -46.6       22.18       59.24       
N           -45.41      23.92       59.84       
C           -44.7       22.79       60.4        
C           -47.39      21.03       58.9        
O           -48.3       20.82       58.16       
O           -43.65      22.98       60.94       
C           -47.55      18.64       59.31       
C           -44.9       25.25       60.21       
H           -44.89267   25.4553     61.28047    
H           -45.45      26.02       59.76       
H           -43.91      25.46       59.81       
H           -47.42      18.09       60.28       
H           -47.30435   17.96086    58.49359    
H           -48.59      18.99       59.28       
N           -46.77      19.85       59.4        
C           -45.51      21.62       60.01       
C           -45.68      20.22       60.12       
C           -48.89      26.31       57.43       
C           -49.3       25.07       57.14       
S           -47.43      26.17       58.29       
H           -48.73      22.98       57.55       
H           -50.05      24.94       56.37       
C           -48.61      24.01       57.74       
C           -47.48      24.44       58.48       
C           -50.42      30.36       56.31       
C           -49.37      30.2        57.32       
C           -50.73      29.15       55.69       
N           -48.0       29.11       58.57       
N           -47.96      30.35       58.85       
N           -48.79      31.1        58.13       
C           -47.0       30.84       59.86       
H           -51.28      29.27       54.83       
H           -50.69      26.97       55.52       
H           -46.24707   30.0801     60.06915    
H           -46.47      31.75       59.47       
H           -47.56136   31.07156    60.76519    
C           -50.25      27.84       56.01       
C           -48.98      28.88       57.69       
C           -49.43      27.65       57.07       
C           -52.96      33.24       55.79       
C           -51.79      33.92       55.96       
S           -52.68      31.55       55.77       
H           -49.71      33.36       56.46       
H           -51.63      34.94       56.06       
C           -50.71      33.01       56.22       
C           -50.97      31.68       55.92       
C           -56.4       36.63       55.82       
C           -56.08      35.31       55.66       
N           -55.29      37.36       56.29       
C           -54.1       36.55       56.1        
C           -56.68      34.04       55.31       
O           -57.78      33.78       54.91       
O           -52.99      36.92       56.45       
C           -55.82      31.74       54.97       
C           -55.26      38.49       57.25       
H           -54.62949   39.29111    56.86428    
H           -55.02      38.36       58.26       
H           -56.26      38.93       57.33       
H           -55.18      31.05       55.54       
H           -55.86334   31.57385    53.89361    
H           -56.81      31.55       55.28       
N           -55.52      33.14       55.33       
C           -54.61      35.14       55.81       
C           -54.34      33.78       55.67       
C           -60.04      37.95       55.79       
C           -59.23      38.86       55.12       
S           -59.19      36.41       55.98       
H           -57.06      39.1        54.67       
H           -59.55      39.82       54.78       
C           -57.87      38.48       55.13       
C           -57.67      37.21       55.68       
C           -64.46      38.36       56.22       
C           -63.62      37.86       57.24       
C           -63.71      38.75       55.17       
N           -61.69      37.21       58.22       
N           -62.8       36.82       58.84       
N           -63.91      37.31       58.44       
C           -62.54      36.12       60.12       
H           -64.21      39.14       54.3        
H           -61.83      39.06       54.15       
H           -62.03238   35.17336    59.93479    
H           -63.46      35.87       60.62       
H           -61.96362   36.68198    60.85489    
C           -62.3       38.66       55.03       
C           -62.23      37.69       57.09       
C           -61.47      38.13       55.97       
H           50.02       3.58        91.0        
H           -65.31      39.01       56.59       
