472

C           96.95       31.24       5.76        
C           97.45       32.03       4.75        
S           96.86       29.63       5.18        
H           98.5        31.74       2.76        
H           97.53       33.09       4.89        
C           97.89       31.32       3.59        
C           97.53       29.98       3.63        
C           94.82       34.06       8.96        
C           95.5        32.9        8.66        
N           94.79       34.81       7.81        
C           95.43       34.17       6.69        
C           95.91       31.64       9.25        
O           95.82       31.13       10.38       
O           95.57       34.51       5.54        
C           96.75       29.41       8.4         
C           94.66       36.3        7.69        
H           95.65318    36.74141    7.60724     
H           94.11       36.77       8.55        
H           94.13       36.51       6.76        
H           97.61       29.17       7.7         
H           95.91801    28.70712    8.35697     
H           97.14       29.32       9.39        
N           96.32       30.85       8.15        
C           95.78       32.89       7.31        
C           96.32       31.63       6.97        
C           92.98       34.11       12.37       
C           92.34       35.05       11.57       
S           94.39       33.5        11.67       
H           92.72       35.68       9.5         
H           91.54       35.71       11.86       
C           92.99       35.12       10.31       
C           94.02       34.24       10.18       
C           91.74       32.28       16.24       
C           90.84       33.15       15.48       
C           92.95       32.12       15.63       
N           90.06       34.3        13.71       
N           89.18       34.2        14.71       
N           89.56       33.51       15.77       
C           87.82       34.7        14.62       
H           93.69       31.5        16.05       
H           94.33       32.63       14.06       
H           87.73492    35.52955    13.91807    
H           87.1        33.93       14.35       
H           87.55357    35.06004    15.61372    
C           93.31       32.83       14.45       
C           91.2        33.75       14.21       
C           92.46       33.58       13.64       
C           91.25       30.44       19.73       
C           90.39       31.51       19.67       
S           92.28       30.46       18.32       
H           89.9        33.08       18.28       
H           89.55       31.65       20.48       
C           90.5        32.23       18.5        
C           91.41       31.78       17.59       
C           91.02       29.81       24.37       
C           91.32       29.23       23.17       
N           90.9        31.22       24.14       
C           90.96       31.46       22.75       
C           91.56       27.93       22.5        
O           91.48       26.8        22.94       
O           90.91       32.64       22.35       
C           91.54       27.35       20.05       
C           91.21       32.36       24.97       
H           92.26383    32.63809    24.98464    
H           91.03       32.16       26.07       
H           90.52       33.21       24.76       
H           92.37       27.47       19.37       
H           90.62982    27.35       19.45027    
H           91.77       26.42       20.57       
N           91.57       28.29       21.09       
C           91.23       30.26       22.15       
C           91.46       29.69       20.93       
C           90.91       28.57       28.07       
C           91.31       27.53       27.27       
S           90.72       29.98       27.12       
H           91.77       27.25       25.14       
H           91.51       26.55       27.69       
C           91.48       27.88       25.91       
C           91.06       29.14       25.6        
C           90.68       28.66       32.54       
C           90.75       29.87       31.74       
C           90.66       27.5        31.74       
N           90.88       31.09       29.89       
N           90.83       31.8        31.05       
N           90.73       31.13       32.15       
C           91.2        33.23       31.0        
H           90.62       26.48       32.15       
H           90.6        26.48       29.86       
H           90.83157    33.56953    30.03197    
H           90.75       33.87       31.76       
H           92.28201    33.29981    31.11169    
C           90.78       27.47       30.32       
C           90.8        29.82       30.35       
C           90.92       28.65       29.58       
C           90.81       27.85       36.4        
C           91.29       29.09       36.2        
S           90.27       27.18       34.87       
H           91.8        30.41       34.5        
H           91.79       29.68       36.92       
C           91.42       29.49       34.87       
C           90.72       28.62       34.02       
C           91.54       27.37       41.14       
C           91.12       26.8        39.99       
N           92.33       28.42       40.81       
C           92.19       28.73       39.45       
C           90.25       25.74       39.47       
O           89.6        24.85       39.96       
O           92.85       29.62       38.92       
C           89.58       25.03       37.24       
C           93.71       28.56       41.31       
H           93.74481    29.3677     42.0411     
H           94.08       27.68       41.73       
H           94.43       28.92       40.52       
H           90.1        25.06       36.23       
H           88.50408    25.05759    37.06758    
H           89.97       24.1        37.57       
N           90.16       26.05       38.05       
C           91.42       27.66       38.86       
C           90.83       27.21       37.71       
C           91.6        25.96       44.93       
C           91.03       25.1        44.06       
S           92.1        27.29       43.94       
H           90.8        24.74       41.89       
H           90.61       24.15       44.42       
C           91.15       25.43       42.65       
C           91.54       26.66       42.39       
C           92.0        26.45       49.41       
C           91.28       25.34       48.76       
C           92.48       27.27       48.43       
N           90.45       23.94       47.12       
N           90.19       23.56       48.32       
N           90.68       24.29       49.34       
C           89.18       22.51       48.47       
H           93.08       28.1        48.7        
H           92.92       27.67       46.4        
H           88.68203    22.27154    47.53018    
H           89.84       21.74       48.78       
H           88.46951    22.8145     49.23849    
C           92.38       26.97       47.0        
C           91.11       25.1        47.33       
C           91.67       25.99       46.41       
C           92.84       28.03       53.02       
C           92.28       26.76       53.23       
S           92.79       28.41       51.31       
H           91.5        25.1        51.87       
H           92.1        26.54       54.29       
C           91.98       26.09       51.98       
C           92.2        26.81       50.82       
C           92.59       30.22       57.33       
C           93.07       30.14       56.05       
N           91.97       29.02       57.65       
C           92.05       28.15       56.55       
C           93.82       30.94       55.04       
O           94.38       31.98       55.16       
O           91.61       27.03       56.6        
C           94.67       30.6        52.77       
C           91.23       28.66       58.88       
H           90.16263    28.63173    58.66087    
H           91.25       29.48       59.65       
H           91.68       27.74       59.11       
H           94.21       30.72       51.8        
H           95.53927    29.95718    52.63121    
H           94.91       31.61       53.08       
N           93.77       30.16       53.84       
C           92.74       28.93       55.45       
C           93.15       28.94       54.12       
C           93.56       33.48       59.3        
C           93.64       32.34       60.09       
S           92.8        32.99       57.79       
H           93.43       30.15       59.96       
H           93.99       32.45       61.12       
C           93.32       31.09       59.5        
C           92.88       31.32       58.24       
C           95.26       37.5        59.61       
C           95.05       36.69       60.72       
C           95.02       36.84       58.39       
N           94.61       34.79       61.85       
N           94.95       35.83       62.58       
N           95.4        36.89       62.02       
C           94.98       35.57       64.02       
H           95.14       37.32       57.45       
H           94.26       35.17       57.33       
H           95.08023    34.49611    64.1775     
H           95.87       36.07       64.31       
H           94.14204    36.03786    64.53674    
C           94.42       35.57       58.35       
C           94.53       35.37       60.65       
C           94.07       34.81       59.45       
C           97.72       40.55       60.05       
C           96.68       40.94       59.2        
S           97.37       38.97       60.66       
H           94.82       40.16       58.35       
H           96.7        41.9        58.75       
C           95.69       39.96       58.94       
C           95.92       38.77       59.69       
C           101.9       41.03       62.22       
C           100.68      41.66       61.86       
N           101.89      39.79       61.63       
C           100.7       39.56       60.82       
C           99.83       42.87       61.98       
O           99.98       43.93       62.49       
O           100.7       38.71       59.96       
C           97.61       43.59       61.14       
C           102.67      38.53       61.87       
H           101.98167   37.75651    62.21062    
H           103.28      38.75       62.82       
H           103.27      38.33       61.02       
H           96.61       43.18       61.24       
H           97.77073    44.17446    60.23409    
H           97.81       44.25       61.98       
N           98.58       42.55       61.33       
C           99.87       40.72       61.08       
C           98.7        41.29       60.72       
C           103.53      42.73       65.31       
C           104.49      41.86       64.82       
S           102.13      42.69       64.31       
H           104.66      40.4        63.13       
H           105.41      41.71       65.37       
C           104.05      41.14       63.63       
C           102.82      41.53       63.19       
C           102.95      44.59       69.29       
C           104.04      43.76       69.02       
C           102.26      44.91       68.15       
N           105.39      42.39       67.76       
N           105.84      42.6        69.0        
N           105.08      43.37       69.75       
C           106.49      41.5        69.62       
H           101.3       45.55       68.25       
H           101.58      44.5        66.11       
H           107.28184   41.08287    68.99784    
H           106.97      41.88       70.54       
H           105.78791   40.71193    69.89224    
C           102.42      44.33       66.85       
C           104.34      43.26       67.71       
C           103.44      43.46       66.56       
C           101.64      44.66       73.02       
C           100.97      45.55       72.31       
S           102.83      43.87       72.01       
H           101.05      46.37       70.29       
H           100.18      46.08       72.77       
C           101.52      45.74       70.98       
C           102.5       44.89       70.64       
C           99.13       43.86       77.07       
C           100.29      43.74       76.31       
N           98.31       44.71       76.33       
C           98.84       44.97       75.06       
C           101.61      43.23       76.34       
O           102.33      42.62       77.08       
O           98.34       45.61       74.15       
C           103.65      44.12       75.29       
C           97.32       45.59       76.88       
H           97.56875    46.62645    76.65198    
H           97.35       45.43       77.98       
H           96.4        45.21       76.62       
H           103.86      45.04       74.78       
H           104.4585    43.38951    75.26163    
H           103.69      44.57       76.24       
N           102.25      43.63       75.14       
C           100.19      44.4        75.06       
C           101.32      44.21       74.32       
C           97.9        41.96       80.28       
C           99.31       41.79       80.19       
S           97.26       43.0        79.0        
H           100.86      42.59       78.86       
H           99.88       41.27       81.01       
C           99.8        42.61       79.1        
C           98.9        43.23       78.33       
C           94.99       40.0        82.93       
C           94.99       41.39       82.78       
C           95.99       39.4        82.16       
N           95.46       43.33       81.69       
N           94.44       43.38       82.51       
N           94.08       42.21       83.16       
C           93.59       44.58       82.64       
H           96.19       38.33       82.28       
H           97.76       39.51       80.93       
H           94.07485    45.48736    82.27983    
H           92.72       44.36       82.02       
H           93.26743    44.7162     83.67223    
C           96.91       40.01       81.29       
C           95.85       42.03       81.78       
C           96.91       41.33       81.14       
C           92.3        38.77       85.47       
C           92.67       37.7        84.69       
S           93.3        40.12       85.16       
H           94.06       37.33       83.02       
H           92.29       36.69       84.67       
C           93.67       38.04       83.79       
C           94.1        39.32       83.84       
C           89.19       36.47       88.4        
C           89.79       37.63       87.95       
N           89.89       35.45       87.76       
C           90.9        36.01       86.9        
C           89.7        39.04       88.07       
O           88.99       39.7        88.77       
O           91.63       35.3        86.24       
C           90.54       41.04       86.92       
C           89.72       33.96       87.76       
H           90.3739     33.47305    88.48346    
H           88.78       33.62       87.87       
H           90.03       33.72       86.79       
H           90.94       41.39       86.0        
H           91.14246    41.52906    87.68548    
H           89.46       41.25       86.93       
N           90.58       39.6        87.06       
C           90.79       37.42       86.91       
C           91.34       38.61       86.51       
C           86.24       35.8        90.97       
C           86.04       37.02       90.39       
S           87.64       35.03       90.27       
H           87.19       38.33       89.03       
H           85.31       37.77       90.79       
C           87.1        37.31       89.46       
C           88.02       36.35       89.22       
C           83.32       33.99       93.95       
C           84.56       33.38       93.54       
C           83.28       35.26       93.36       
N           86.52       32.95       92.37       
N           86.06       31.9        93.07       
N           85.0        32.09       93.79       
C           86.71       30.58       93.05       
H           82.4        35.89       93.64       
H           84.1        36.89       92.15       
H           87.73138    30.64809    92.6755     
H           86.64       30.13       94.1        
H           86.11769    29.97342    92.36492    
C           84.24       35.78       92.45       
C           85.56       33.87       92.64       
C           85.44       35.18       92.03       
C           80.34       32.88       96.34       
C           81.29       31.9        96.38       
S           80.87       34.1        95.29       
H           83.26       31.45       95.4        
H           81.13       30.95       96.97       
C           82.46       32.18       95.58       
C           82.34       33.35       94.85       
C           77.55       32.1        100.21      
C           77.8        32.79       99.06       
N           78.66       31.18       100.33      
C           79.63       31.31       99.21       
C           77.2        33.73       98.12       
O           76.11       34.27       98.09       
O           80.54       30.54       99.09       
C           77.5        34.23       95.73       
C           78.79       29.91       101.1       
H           78.35389    29.1347     100.47007   
H           79.85       29.67       101.26      
H           78.26       29.97       102.02      
H           77.94       33.72       94.88       
H           77.60752    35.30517    95.58664    
H           76.44       33.95       95.88       
N           78.11       33.73       96.95       
C           79.08       32.39       98.44       
C           79.27       33.0        97.25       
C           74.34       31.53       102.55      
C           74.01       32.38       101.53      
S           75.98       31.14       102.42      
H           74.93       33.14       99.66       
H           73.05       32.83       101.39      
C           75.11       32.66       100.63      
C           76.34       32.17       101.03      
C           71.8        29.21       105.4       
C           71.28       30.34       104.72      
C           73.12       29.01       105.12      
N           71.3        31.97       103.09      
N           70.16       31.82       103.72      
N           70.02       30.9        104.68      
C           68.97       32.62       103.38      
H           73.66       28.23       105.62      
H           74.86       29.48       104.05      
H           69.08469    33.07878    102.39793   
H           68.14       32.01       103.45      
H           68.77142    33.35546    104.15959   
C           73.89       29.84       104.23      
C           72.11       31.09       103.74      
C           73.46       30.88       103.54      
C           70.19       26.63       107.96      
C           69.23       26.95       106.98      
S           71.74       27.42       107.56      
H           69.21       28.17       105.04      
H           68.28       26.46       107.02      
C           69.71       27.85       105.92      
C           71.07       28.2        106.17      
C           67.34       24.22       110.96      
C           68.57       24.73       110.72      
N           66.79       23.86       109.77      
C           67.64       24.35       108.63      
C           69.83       25.1        111.35      
O           70.28       24.94       112.42      
O           67.37       24.19       107.45      
C           71.91       26.43       110.62      
C           66.05       22.62       109.59      
H           66.69902    21.76415    109.40457   
H           65.4        22.57       108.72      
H           65.5        22.35       110.47      
H           71.84       27.4        110.17      
H           72.78602    25.88508    110.26821   
H           71.9        26.44       111.67      
N           70.57       25.78       110.25      
C           68.78       25.02       109.33      
C           69.92       25.76       109.05      
C           65.12       23.75       114.07      
C           66.42       23.73       114.51      
S           65.1        23.94       112.34      
H           68.48       24.03       113.59      
H           66.69       23.63       115.51      
C           67.39       23.96       113.45      
C           66.79       23.91       112.19      
C           61.42       22.6        116.16      
C           61.46       23.35       114.92      
C           62.69       22.4        116.7       
N           62.34       24.23       113.04      
N           60.98       24.17       112.98      
N           60.44       23.72       114.14      
C           60.26       24.37       111.72      
H           62.79       22.03       117.69      
H           64.79       22.69       116.53      
H           60.97779    24.48601    110.90795   
H           59.57       23.6        111.49      
H           59.71612    25.30942    111.81889   
C           63.86       22.88       116.01      
C           62.67       23.69       114.19      
C           63.94       23.49       114.79      
C           57.93       21.28       117.38      
C           58.89       20.92       118.32      
S           58.66       22.43       116.35      
H           61.01       21.37       118.69      
H           58.68       20.44       119.28      
C           60.22       21.4        118.03      
C           60.26       22.08       116.83      
C           54.2        18.27       118.08      
C           54.69       19.36       117.38      
N           55.37       17.72       118.75      
C           56.5        18.51       118.62      
C           54.32       20.47       116.49      
O           53.25       20.9        116.13      
O           57.59       18.27       119.18      
C           55.46       22.39       115.56      
C           55.58       16.47       119.53      
H           56.01672    15.74941    118.83853   
H           54.66       16.02       119.97      
H           56.26       16.68       120.41      
H           56.3        22.45       114.93      
H           55.28299    23.34144    116.06153   
H           54.71       22.09       114.85      
N           55.51       21.25       116.44      
C           56.07       19.57       117.75      
C           56.58       20.7        117.2       
C           50.8        16.17       118.0       
C           50.58       17.54       117.85      
S           52.55       15.97       118.17      
H           51.8        19.43       117.59      
H           49.53       17.86       117.65      
C           51.8        18.34       117.8       
C           52.87       17.72       118.14      
C           48.14       12.63       117.79      
C           47.8        13.84       117.21      
C           49.27       12.7        118.55      
N           47.96       16.07       116.76      
N           46.82       15.51       116.21      
N           46.72       14.23       116.52      
C           46.32       16.1        115.02      
H           49.66       11.77       119.07      
H           50.98       13.67       119.13      
H           45.73948    17.01019    115.1705    
H           45.8        15.31       114.54      
H           47.14178    16.35988    114.35274   
C           50.08       13.82       118.63      
C           48.59       15.05       117.41      
C           49.87       15.06       118.01      
H           97.27       29.4        2.77        
H           47.36       11.96       118.14      
