472

C           89.52       75.57       23.09       
C           88.47       74.72       23.02       
S           89.43       76.69       21.82       
H           86.55       74.55       21.94       
H           88.24       74.04       23.87       
C           87.57       75.03       22.0        
C           87.92       76.06       21.18       
C           92.35       73.82       26.45       
C           92.07       74.83       25.57       
N           91.68       72.71       26.06       
C           90.73       73.01       25.04       
C           92.38       76.24       25.44       
O           92.94       77.09       26.14       
O           89.92       72.22       24.58       
C           90.92       77.99       24.37       
C           91.96       71.35       26.45       
H           92.60807    70.92983    25.68087    
H           90.99       70.82       26.59       
H           92.51       71.32       27.4        
H           89.91       78.14       24.12       
H           91.61489    78.65563    23.85798    
H           90.99       78.4        25.35       
N           91.37       76.63       24.42       
C           91.04       74.39       24.69       
C           90.64       75.52       23.98       
C           95.21       74.02       29.3        
C           95.52       74.79       28.25       
S           93.65       73.28       29.0        
H           94.48       75.54       26.4        
H           96.34       75.44       28.25       
C           94.51       74.81       27.17       
C           93.47       73.93       27.41       
C           97.52       73.73       33.1        
C           96.06       73.54       33.08       
C           98.07       73.9        31.87       
N           94.0        73.64       32.19       
N           94.06       73.25       33.45       
N           95.26       73.18       33.99       
C           92.88       73.3        34.28       
H           99.12       73.83       31.7        
H           97.8        74.33       29.71       
H           92.00191    73.25751    33.6356     
H           92.87       72.54       35.02       
H           92.86612    74.22966    34.8489     
C           97.3        74.01       30.64       
C           95.31       73.67       31.84       
C           95.91       74.01       30.57       
C           98.83       73.53       36.83       
C           99.82       74.03       35.99       
S           97.6        72.95       35.9        
H           100.18      74.27       33.78       
H           100.81      74.33       36.34       
C           99.49       73.96       34.58       
C           98.24       73.66       34.39       
C           101.02      73.34       41.18       
C           99.89       73.1        40.42       
N           101.73      74.3        40.5        
C           101.31      74.34       39.11       
C           98.65       72.26       40.42       
O           98.18       71.51       41.27       
O           101.98      74.91       38.29       
C           96.96       71.69       38.9        
C           102.31      75.48       41.02       
H           101.64981   76.31578    40.78823    
H           103.37      75.62       40.74       
H           102.34      75.4        42.08       
H           96.77       71.65       37.81       
H           96.03663    72.06221    39.34379    
H           97.3        70.7        39.19       
N           98.13       72.48       39.17       
C           100.03      73.61       39.1        
C           98.98       73.31       38.29       
C           101.28      71.83       44.81       
C           102.51      72.2        44.34       
S           100.08      72.16       43.6        
H           103.29      73.27       42.66       
H           103.49      72.12       44.86       
C           102.42      72.91       43.12       
C           101.24      72.79       42.46       
C           99.83       68.98       47.8        
C           101.18      69.0        47.34       
C           99.15       70.11       47.43       
N           102.97      69.53       46.13       
N           103.09      68.47       46.83       
N           102.15      68.15       47.68       
C           103.88      67.38       46.25       
H           98.16       70.15       47.76       
H           98.9        71.8        46.18       
H           104.45426   67.76284    45.40634    
H           104.53      66.98       47.04       
H           103.24509   66.54756    45.94665    
C           99.69       71.07       46.48       
C           101.72      69.98       46.45       
C           100.88      70.95       45.86       
C           98.87       66.34       50.57       
C           97.78       66.93       50.0        
S           100.23      67.12       49.84       
H           97.21       68.22       48.3        
H           96.81       66.57       50.24       
C           98.0        67.84       48.92       
C           99.31       68.04       48.73       
C           97.27       62.55       53.16       
C           98.24       63.37       52.74       
N           96.15       63.28       52.92       
C           96.37       64.48       52.11       
C           99.66       63.53       52.81       
O           100.53      62.75       53.17       
O           95.49       65.19       51.63       
C           101.36      65.22       52.3        
C           94.79       62.91       53.12       
H           94.45669    62.27236    52.30121    
H           94.66       62.42       54.08       
H           94.09       63.79       53.19       
H           101.4       66.34       52.26       
H           102.1764    64.77661    51.72992    
H           101.59      65.03       53.36       
N           100.0       64.72       52.13       
C           97.79       64.53       52.02       
C           98.88       65.22       51.53       
C           97.15       59.08       55.05       
C           98.38       59.61       55.18       
S           96.13       60.09       54.13       
H           99.39       61.5        54.63       
H           99.17       59.15       55.77       
C           98.5        60.91       54.6        
C           97.36       61.32       53.93       
C           95.73       55.06       56.12       
C           97.12       55.34       55.84       
C           94.92       56.23       56.12       
N           98.95       56.55       55.36       
N           99.14       55.27       55.45       
N           98.16       54.47       55.75       
C           100.13      54.74       54.47       
H           93.91       56.16       56.51       
H           94.76       58.39       55.68       
H           101.02295   55.36506    54.47687    
H           100.32      53.71       54.74       
H           99.65649    54.57745    53.50177    
C           95.45       57.51       55.75       
C           97.65       56.67       55.48       
C           96.75       57.75       55.38       
C           93.47       51.85       56.51       
C           94.65       51.47       55.95       
S           93.59       53.57       56.83       
H           96.64       52.35       55.45       
H           94.8        50.4        55.76       
C           95.67       52.49       55.92       
C           95.23       53.75       56.24       
C           90.2        48.41       55.85       
C           90.62       49.52       56.45       
N           91.27       48.06       55.0        
C           92.37       48.99       55.01       
C           90.15       50.4        57.51       
O           89.25       50.39       58.29       
O           93.46       48.85       54.36       
C           91.33       52.15       58.78       
C           91.44       47.0        54.01       
H           92.081      46.21425    54.40977    
H           91.98       47.43       53.18       
H           90.51       46.59       53.6        
H           91.43       53.21       58.79       
H           92.1118     51.83305    59.47024    
H           90.36       52.04       59.15       
N           91.27       51.33       57.58       
C           91.9        49.93       56.02       
C           92.23       51.13       56.62       
C           87.74       45.53       56.73       
C           87.22       46.7        57.23       
S           89.12       45.86       55.86       
H           87.71       48.82       57.08       
H           86.44       46.72       57.99       
C           87.93       47.86       56.83       
C           89.04       47.57       56.03       
C           87.3        41.3        57.99       
C           87.05       42.4        58.93       
C           87.66       41.77       56.77       
N           86.86       44.59       59.49       
N           86.58       43.79       60.47       
N           86.61       42.46       60.2        
C           86.04       44.33       61.72       
H           87.97       41.07       55.97       
H           88.32       43.28       55.38       
H           85.82452    45.39304    61.61226    
H           85.22       43.7        61.97       
H           86.77508    44.19769    62.51388    
C           87.91       43.1        56.35       
C           87.13       43.74       58.45       
C           87.62       44.16       57.16       
C           87.96       37.55       58.23       
C           87.28       37.84       59.41       
S           88.18       38.89       57.12       
H           86.44       39.66       60.29       
H           87.02       37.14       60.19       
C           86.82       39.17       59.37       
C           87.24       39.89       58.27       
C           89.68       34.26       55.24       
C           89.04       34.5        56.43       
N           90.34       35.45       54.93       
C           89.79       36.55       55.63       
C           88.2        33.93       57.49       
O           87.84       32.8        57.69       
O           90.02       37.68       55.26       
C           86.87       34.63       59.41       
C           91.53       35.58       54.07       
H           92.3195     36.13195    54.58003    
H           91.25       36.19       53.23       
H           91.79       34.62       53.72       
H           86.12       35.44       59.57       
H           87.48809    34.35689    60.26526    
H           86.29       33.78       59.09       
N           87.72       35.01       58.25       
C           89.05       35.93       56.68       
C           88.22       36.23       57.81       
C           89.59       30.86       53.31       
C           89.66       30.63       54.67       
S           89.96       32.53       53.01       
H           89.93       31.74       56.51       
H           89.58       29.64       55.17       
C           89.82       31.76       55.45       
C           89.97       32.92       54.72       
C           88.84       28.15       49.81       
C           88.94       27.66       51.16       
C           89.06       29.53       49.78       
N           89.1        27.75       53.41       
N           88.77       26.53       52.95       
N           88.68       26.37       51.68       
C           88.1        25.62       53.89       
H           88.95       30.07       48.87       
H           89.76       31.38       50.63       
H           87.80965    26.15114    54.79647    
H           87.2        25.21       53.36       
H           88.77133    24.81851    54.19827    
C           89.43       30.38       50.91       
C           89.18       28.51       52.29       
C           89.4        29.95       52.2        
C           87.9        26.82       46.3        
C           87.46       25.89       47.16       
S           88.71       28.11       47.07       
H           87.46       25.73       49.39       
H           86.83       25.03       46.99       
C           87.76       26.26       48.51       
C           88.44       27.41       48.65       
C           88.19       28.32       41.63       
C           87.81       27.37       42.57       
N           89.02       29.16       42.32       
C           89.08       28.84       43.68       
C           87.09       26.09       42.73       
O           86.57       25.39       41.83       
O           89.82       29.46       44.46       
C           85.54       25.39       44.54       
C           89.28       30.54       42.02       
H           88.39524    31.09917    42.32436    
H           89.32       30.73       40.98       
H           90.09       30.94       42.54       
H           85.03       25.76       45.45       
H           85.64129    24.30474    44.54724    
H           84.92       25.62       43.69       
N           86.85       25.95       44.13       
C           88.25       27.65       43.87       
C           87.75       26.76       44.86       
C           87.38       28.74       37.78       
C           86.61       27.73       38.27       
S           88.37       29.43       39.01       
H           86.19       26.84       40.22       
H           85.81       27.27       37.64       
C           86.78       27.59       39.66       
C           87.72       28.39       40.24       
C           87.22       30.23       33.49       
C           87.86       30.94       34.51       
C           86.54       29.17       34.0        
N           88.88       31.23       36.51       
N           89.17       32.15       35.68       
N           88.67       32.05       34.47       
C           89.65       33.46       36.09       
H           85.97       28.58       33.29       
H           86.08       27.75       35.45       
H           89.70653    33.48826    37.17817    
H           90.63       33.57       35.73       
H           89.15169    34.26441    35.54898    
C           86.62       28.69       35.29       
C           88.08       30.32       35.87       
C           87.37       29.23       36.36       
C           86.24       31.32       29.82       
C           87.35       32.03       30.18       
S           85.79       30.15       31.1        
H           88.51       32.17       32.04       
H           87.63       32.87       29.64       
C           87.76       31.71       31.48       
C           87.09       30.72       32.11       
C           82.77       30.69       26.6        
C           84.08       30.86       26.91       
N           82.18       30.74       27.81       
C           83.05       30.94       28.9        
C           85.37       30.93       26.25       
O           85.73       30.72       25.07       
O           82.72       31.21       30.05       
C           87.7        31.39       27.0        
C           80.85       30.49       28.19       
H           80.73957    29.4064     28.14859    
H           80.6        30.87       29.18       
H           80.26       31.0        27.42       
H           88.38       31.41       27.88       
H           87.88643    32.27913    26.39768    
H           88.04       30.5        26.43       
N           86.33       31.23       27.29       
C           84.36       31.0        28.28       
C           85.65       31.32       28.53       
C           81.13       31.15       23.09       
C           82.27       30.35       22.96       
S           80.82       31.49       24.69       
H           83.84       29.62       24.3        
H           82.63       30.01       21.94       
C           82.93       30.17       24.21       
C           82.21       30.62       25.28       
C           78.82       33.43       20.13       
C           79.77       32.42       19.77       
C           78.64       33.63       21.51       
N           81.36       30.91       20.03       
N           81.12       31.04       18.8        
N           80.18       31.98       18.52       
C           81.7        30.2        17.82       
H           78.1        34.49       21.81       
H           79.39       33.18       23.5        
H           82.19352    29.37978    18.34132    
H           80.93       29.76       17.22       
H           82.42357    30.75497    17.22288    
C           79.4        32.86       22.43       
C           80.48       31.64       20.71       
C           80.2        31.8        22.1        
C           77.92       35.66       16.98       
C           76.79       35.39       17.75       
S           79.24       34.86       17.83       
H           76.19       34.36       19.63       
H           75.82       35.73       17.37       
C           77.0        34.72       18.99       
C           78.28       34.38       19.17       
C           76.91       38.96       13.73       
C           77.71       37.96       14.17       
N           75.68       38.67       14.3        
C           75.82       37.63       15.35       
C           78.97       37.36       13.85       
O           79.88       37.7        13.06       
O           74.9        37.39       16.04       
C           80.39       35.67       14.93       
C           74.38       38.7        13.68       
H           73.74391    39.48451    14.08992    
H           74.53       38.94       12.6        
H           73.97       37.61       13.71       
H           80.27       34.71       15.33       
H           81.17597    36.24731    15.41689    
H           80.74       35.53       13.98       
N           79.13       36.39       14.87       
C           77.18       37.2        15.23       
C           78.1        36.42       15.77       
C           77.96       41.16       10.74       
C           76.98       41.81       11.45       
S           78.3        39.62       11.44       
H           76.1        41.56       13.48       
H           76.61       42.83       11.14       
C           76.7        41.19       12.66       
C           77.17       39.91       12.74       
C           80.2        42.42       7.06        
C           79.19       43.26       7.62        
C           80.36       41.21       7.73        
N           77.59       43.8        9.04        
N           77.7        44.79       8.12        
N           78.66       44.52       7.22        
C           76.69       45.86       7.94        
H           81.03       40.47       7.34        
H           79.98       39.79       9.33        
H           76.45214    46.33572    8.89143     
H           77.06       46.54       7.2         
H           75.81241    45.38524    7.50121     
C           79.69       40.75       8.92        
C           78.52       42.81       8.78        
C           78.65       41.53       9.48        
C           82.04       42.45       3.59        
C           81.32       43.59       3.67        
S           82.04       41.65       5.15        
H           79.94       44.43       5.18        
H           80.88       43.99       2.79        
C           80.7        43.75       4.94        
C           80.91       42.77       5.81        
C           83.06       42.45       -1.07       
C           83.1        41.81       0.11        
N           82.72       43.78       -0.87       
C           82.32       43.95       0.53        
C           83.46       40.55       0.73        
O           83.8        39.48       0.28        
O           81.94       44.99       0.97        
C           82.66       39.5        2.83        
C           82.77       45.06       -1.61       
H           83.70044    45.59791    -1.42827    
H           81.97       45.69       -1.3        
H           82.56       44.84       -2.64       
H           81.74       39.74       3.41        
H           83.49691    39.17649    3.44889     
H           82.27       38.79       2.13        
N           82.97       40.71       2.07        
C           82.62       42.71       1.14        
C           82.59       42.02       2.33        
C           83.57       41.47       -4.87       
C           84.05       40.39       -4.15       
S           83.12       42.76       -3.88       
H           84.18       39.87       -2.12       
H           84.37       39.4        -4.58       
C           83.81       40.63       -2.76       
C           83.37       41.88       -2.41       
C           83.81       42.06       -9.22       
C           82.81       42.64       -8.49       
C           84.68       41.28       -8.5        
N           81.59       43.11       -6.66       
N           81.23       43.77       -7.76       
N           81.81       43.47       -8.87       
C           80.2        44.79       -7.64       
H           85.5        40.79       -8.94       
H           85.42       40.53       -6.68       
H           80.1502     45.039      -6.57999    
H           80.56       45.63       -8.2        
H           79.22872    44.47832    -8.02416    
C           84.61       41.05       -7.11       
C           82.64       42.39       -7.1        
C           83.59       41.58       -6.31       
C           85.62       42.5        -12.7       
C           84.5        43.31       -12.77      
S           85.71       41.75       -11.11      
H           82.65       43.54       -11.55      
H           84.32       44.03       -13.56      
C           83.6        43.08       -11.64      
C           84.08       42.28       -10.69      
C           89.45       40.59       -14.95      
C           88.58       41.7        -14.74      
N           88.91       39.57       -14.13      
C           87.74       39.95       -13.46      
C           88.39       43.09       -15.07      
O           88.96       43.96       -15.7       
O           87.3        39.3        -12.54      
C           86.87       44.84       -14.31      
C           89.19       38.2        -14.16      
H           88.58689    37.63196    -14.8683    
H           89.14       37.73       -13.17      
H           90.18       38.0        -14.51      
H           86.43       45.1        -13.41      
H           86.39215    45.05537    -15.26571   
H           87.8        45.46       -14.31      
N           87.26       43.47       -14.23      
C           87.59       41.34       -13.77      
C           86.74       42.45       -13.6       
C           92.54       40.09       -17.43      
C           92.18       41.42       -17.3       
S           91.41       39.27       -16.44      
H           90.98       42.72       -16.03      
H           92.69       42.18       -17.93      
C           91.26       41.74       -16.26      
C           90.7        40.62       -15.68      
C           95.82       38.19       -19.7       
C           94.84       37.46       -18.96      
C           95.5        39.55       -19.8       
N           93.17       37.04       -17.49      
N           93.8        35.99       -17.94      
N           94.81       36.13       -18.75      
C           93.44       34.72       -17.35      
H           96.12       40.21       -20.37      
H           94.33       41.23       -19.1       
H           93.5796     33.9452     -18.10386   
H           92.39       34.82       -17.2       
H           93.99277    34.4507     -16.44998   
C           94.38       40.09       -19.05      
C           93.79       38.02       -18.2       
C           93.53       39.43       -18.21      
H           87.16       76.73       20.74       
H           96.68       37.71       -20.15      
