472

C           92.16       7.95        11.8        
C           92.81       6.99        11.04       
S           90.78       7.21        12.49       
H           92.45       4.79        10.66       
H           93.74       7.1         10.45       
C           92.14       5.72        11.09       
C           91.1        5.58        11.98       
C           94.78       11.92       10.77       
C           93.67       11.3        11.38       
N           95.42       10.95       10.11       
C           94.8        9.67        10.31       
C           92.48       11.64       12.17       
O           92.07       12.66       12.69       
O           95.25       8.69        9.73        
C           90.73       10.44       13.37       
C           96.62       10.97       9.27        
H           96.33308    11.15195    8.2343      
H           97.15       10.05       9.36        
H           97.35       11.68       9.68        
H           90.67       9.54        13.94       
H           89.81266    10.68813    12.83614    
H           90.8        11.22       14.09       
N           91.94       10.38       12.54       
C           93.66       9.88        11.15       
C           92.58       9.35        11.87       
C           96.49       15.4        11.2        
C           95.8        15.04       12.28       
S           96.2        14.19       9.99        
H           94.41       13.5        13.0        
H           95.82       15.63       13.19       
C           95.02       13.87       12.21       
C           95.25       13.22       11.07       
C           99.3        18.69       10.89       
C           98.45       18.29       9.76        
C           99.02       18.11       12.06       
N           96.94       17.12       8.54        
N           97.54       18.11       7.86        
N           98.39       18.83       8.5         
C           97.15       18.42       6.51        
H           99.43       18.53       13.01       
H           98.18       16.58       13.06       
H           96.43135    17.68698    6.14349     
H           96.69       19.41       6.56        
H           98.08117    18.44865    5.94414     
C           98.08       17.11       12.1        
C           97.44       17.27       9.83        
C           97.37       16.54       11.05       
C           102.51      20.77       9.86        
C           102.23      21.07       11.21       
S           101.2       19.87       9.23        
H           100.84      20.43       12.74       
H           102.91      21.64       11.81       
C           100.99      20.4        11.68       
C           100.26      19.78       10.73       
C           106.94      22.54       9.36        
C           105.88      21.94       8.86        
N           106.71      22.92       10.65       
C           105.36      22.52       10.99       
C           105.43      21.36       7.59        
O           105.87      21.03       6.51        
O           104.9       22.7        12.06       
C           103.14      21.01       6.76        
C           107.62      23.35       11.67       
H           107.77053   22.48981    12.32231    
H           107.38      24.3        12.11       
H           108.61      23.62       11.41       
H           102.23      21.46       6.98        
H           102.96358   20.01029    6.36306     
H           103.56      21.79       6.1         
N           104.05      20.98       7.9         
C           104.85      21.86       9.8         
C           103.73      21.2        9.21        
C           110.66      23.02       8.06        
C           110.07      22.03       7.43        
S           109.42      23.85       9.04        
H           108.11      21.03       7.3         
H           110.55      21.4        6.67        
C           108.74      21.84       7.69        
C           108.26      22.55       8.76        
C           114.92      23.51       9.0         
C           113.97      24.52       9.14        
C           114.4       22.53       8.27        
N           112.16      25.79       8.87        
N           113.08      26.35       9.56        
N           114.21      25.68       9.77        
C           112.93      27.81       9.94        
H           115.03      21.72       7.87        
H           112.72      21.47       7.42        
H           111.8689    28.05925    9.93288     
H           113.33      27.9        10.94       
H           113.48505   28.36505    9.18374     
C           113.04      22.41       7.87        
C           112.65      24.51       8.61        
C           112.1       23.34       8.08        
C           118.72      23.01       9.71        
C           118.34      24.25       10.21       
S           117.3       22.2        9.11        
H           116.53      25.55       10.14       
H           119.09      24.97       10.45       
C           116.98      24.56       10.0        
C           116.26      23.54       9.45        
C           122.26      19.8        8.88        
C           121.85      21.05       9.33        
N           121.1       19.19       8.47        
C           119.95      20.0        8.65        
C           122.36      22.24       9.98        
O           123.44      22.63       10.31       
O           118.8       19.73       8.33        
C           121.3       23.81       11.53       
C           120.9       18.0        7.71        
H           120.36394   17.23214    8.26779     
H           120.4       18.27       6.81        
H           121.78      17.71       7.15        
H           120.42      23.66       12.09       
H           121.48779   24.87893    11.42888    
H           122.13      23.38       12.08       
N           121.24      23.03       10.3        
C           120.44      21.21       9.25        
C           120.05      22.45       9.72        
C           125.59      17.94       9.74        
C           125.8       19.27       9.65        
S           123.9       17.53       9.34        
H           124.64      21.04       9.11        
H           126.74      19.72       9.84        
C           124.65      19.98       9.21        
C           123.54      19.23       8.92        
C           128.27      15.1        11.6        
C           126.96      14.78       11.1        
C           128.56      16.44       11.51       
N           124.95      14.92       10.18       
N           125.23      13.71       10.63       
N           126.4       13.57       11.14       
C           124.35      12.58       10.49       
H           129.48      16.75       12.07       
H           128.01      18.47       10.86       
H           123.40793   12.93855    10.07521    
H           124.78      11.86       9.79        
H           124.24891   12.11788    11.472      
C           127.7       17.4        10.86       
C           126.08      15.69       10.46       
C           126.47      17.05       10.33       
C           129.57      13.59       14.95       
C           130.64      13.94       14.24       
S           128.08      13.8        14.04       
H           131.08      14.7        12.18       
H           131.6       14.09       14.76       
C           130.36      14.38       12.91       
C           128.97      14.38       12.63       
C           131.07      13.97       19.47       
C           130.23      13.36       18.56       
N           131.93      14.81       18.81       
C           131.48      14.92       17.41       
C           129.16      12.4        18.52       
O           128.68      11.65       19.36       
O           132.1       15.57       16.6        
C           127.66      11.68       16.63       
C           133.11      15.55       19.2        
H           132.84434   16.60565    19.14407    
H           133.91      15.39       18.53       
H           133.48      15.32       20.19       
H           127.95      11.32       15.62       
H           126.69441   12.18441    16.66603    
H           127.6       10.86       17.29       
N           128.77      12.41       17.11       
C           130.45      13.86       17.21       
C           129.54      13.32       16.34       
C           131.35      12.75       23.23       
C           131.4       14.1        23.11       
S           130.78      12.13       21.75       
H           131.57      15.66       21.58       
H           131.75      14.68       23.96       
C           131.37      14.62       21.86       
C           131.12      13.64       20.93       
C           132.43      10.04       26.57       
C           132.72      11.43       26.6        
C           131.85      9.63        25.36       
N           132.6       13.57       25.99       
N           133.21      13.37       27.15       
N           133.31      12.12       27.59       
C           133.57      14.41       28.06       
H           131.52      8.55        25.1        
H           131.07      10.08       23.51       
H           133.29668   15.38821    27.6644     
H           133.13      14.25       29.02       
H           134.65146   14.4032     28.19603    
C           131.48      10.51       24.35       
C           132.29      12.33       25.59       
C           131.74      11.85       24.35       
C           132.97      6.87        28.92       
C           133.45      7.97        29.57       
S           132.65      7.36        27.29       
H           133.64      10.21       29.21       
H           133.87      7.96        30.57       
C           133.39      9.21        28.8        
C           132.89      9.03        27.55       
C           133.58      3.55        32.33       
C           133.06      3.87        31.12       
N           134.48      4.54        32.75       
C           134.44      5.62        31.78       
C           132.27      3.4         30.01       
O           131.67      2.3         29.94       
O           135.2       6.58        31.79       
C           131.53      4.28        27.88       
C           134.96      4.94        34.02       
H           134.40336   5.78961     34.41551    
H           135.93      5.33        33.87       
H           134.85      4.13        34.72       
H           132.08      4.59        26.91       
H           130.54202   4.7349      27.80892    
H           131.46      3.19        27.78       
N           132.18      4.51        29.13       
C           133.52      5.18        30.71       
C           132.97      5.55        29.52       
C           131.17      1.59        34.73       
C           132.51      1.38        35.08       
S           131.17      2.62        33.32       
H           134.55      1.79        34.16       
H           132.81      0.79        35.94       
C           133.47      1.88        34.11       
C           132.86      2.58        33.17       
C           127.34      0.43        36.28       
C           128.45      0.55        37.13       
C           127.54      0.84        34.99       
N           130.67      0.93        37.68       
N           129.91      0.62        38.65       
N           128.61      0.37        38.48       
C           130.57      0.26        39.87       
H           126.74      0.92        34.23       
H           128.9       1.49        33.45       
H           131.57436   0.68141     39.91214    
H           129.96      0.54        40.68       
H           130.69248   -0.8207     39.94205    
C           128.82      1.17        34.54       
C           129.75      0.85        36.68       
C           129.93      1.18        35.33       
C           123.56      -0.25       37.12       
C           124.28      -0.48       38.22       
S           124.6       0.08        35.82       
H           126.4       -0.52       38.89       
H           123.81      -0.7        39.21       
C           125.68      -0.44       38.0        
C           126.01      0.02        36.78       
C           119.14      0.64        38.56       
C           119.95      0.22        37.6        
N           119.87      1.06        39.68       
C           121.27      0.71        39.42       
C           119.95      -0.31       36.28       
O           119.0       -0.58       35.55       
O           122.18      0.76        40.27       
C           121.75      -1.19       34.78       
C           119.44      1.89        40.76       
H           120.17254   2.67138     40.96232    
H           119.27      1.24        41.57       
H           118.5       2.45        40.52       
H           122.65      -1.75       34.95       
H           121.85254   -0.47957    33.95971    
H           121.04      -1.96       34.63       
N           121.35      -0.54       36.0        
C           121.29      0.28        38.03       
C           122.14      -0.1        37.06       
C           115.66      2.21        37.42       
C           115.62      1.86        38.76       
S           117.33      1.88        36.88       
H           116.94      0.91        40.26       
H           114.75      2.06        39.37       
C           116.76      1.14        39.24       
C           117.8       1.03        38.31       
C           113.04      4.49        34.92       
C           113.89      3.51        34.41       
C           113.0       4.51        36.31       
N           115.37      1.89        34.42       
N           114.95      2.1         33.26       
N           114.16      3.13        33.12       
C           115.24      1.14        32.19       
H           112.32      5.2         36.8        
H           113.79      3.81        38.2        
H           116.13616   0.62791     32.54038    
H           114.39      0.43        32.2        
H           115.40069   1.63669     31.23314    
C           113.86      3.71        37.11       
C           114.73      2.75        35.2        
C           114.74      2.87        36.57       
C           111.75      7.22        32.35       
C           110.76      7.06        33.32       
S           113.12      6.32        32.84       
H           110.46      5.81        35.14       
H           109.79      7.54        33.35       
C           111.12      6.12        34.31       
C           112.3       5.47        34.11       
C           109.78      10.27       29.35       
C           110.75      9.36        29.67       
N           109.09      10.42       30.51       
C           109.5       9.56        31.55       
C           111.79      8.68        29.04       
O           112.25      8.73        27.88       
O           108.97      9.49        32.64       
C           113.15      6.67        29.63       
C           107.98      11.3        30.82       
H           108.41183   12.27881    31.02872    
H           107.19      11.24       30.06       
H           107.55      11.03       31.81       
H           112.89      5.76        30.08       
H           114.21074   6.87068     29.78051    
H           112.96      6.65        28.61       
N           112.35      7.83        30.05       
C           110.68      8.91        31.01       
C           111.69      8.03        31.26       
C           109.34      12.62       26.13       
C           110.63      12.29       26.31       
S           108.43      11.84       27.41       
H           111.87      11.09       27.7        
H           111.44      12.73       25.73       
C           110.87      11.47       27.41       
C           109.75      11.2        28.23       
C           107.59      14.4        22.44       
C           106.89      14.37       23.7        
C           108.92      13.84       22.53       
N           106.55      13.98       25.89       
N           105.46      14.33       25.25       
N           105.61      14.55       23.95       
C           104.2       14.39       26.01       
H           109.56      13.71       21.75       
H           110.38      12.81       23.69       
H           104.48085   14.39       27.0632     
H           103.74      15.29       25.76       
H           103.5155    13.57848    25.76302    
C           109.43      13.32       23.72       
C           107.47      13.78       24.9        
C           108.75      13.25       24.95       
C           106.42      15.52       18.8        
C           105.63      16.1        19.71       
S           107.6       14.51       19.65       
H           105.41      16.2        21.88       
H           104.84      16.76       19.34       
C           106.01      15.81       21.05       
C           106.99      14.93       21.18       
C           104.97      17.2        14.6        
C           105.72      16.4        15.35       
N           104.11      17.89       15.48       
C           104.22      17.36       16.79       
C           106.83      15.53       15.13       
O           107.54      15.34       14.15       
O           103.69      17.8        17.76       
C           107.84      13.85       16.56       
C           103.3       19.07       15.32       
H           103.97192   19.9245     15.23966    
H           102.52      18.99       14.61       
H           102.73      19.27       16.22       
H           107.47      13.21       17.32       
H           108.92807   13.91485    16.56       
H           107.53      13.31       15.66       
N           107.16      15.09       16.49       
C           105.44      16.5        16.76       
C           106.32      15.71       17.37       
C           105.8       17.91       10.79       
C           104.48      17.91       10.99       
S           106.6       17.65       12.35       
H           103.11      17.52       12.61       
H           103.76      18.02       10.14       
C           104.1       17.66       12.34       
C           105.11      17.46       13.19       
C           108.21      18.36       7.13        
C           106.84      17.98       7.1         
C           108.7       18.55       8.39        
N           104.84      17.28       7.94        
N           105.03      17.16       6.61        
N           106.14      17.56       6.08        
C           104.37      16.13       5.87        
H           109.78      18.93       8.45        
H           108.29      18.88       10.56       
H           103.79244   15.53131    6.57434     
H           103.71      16.55       5.19        
H           105.10834   15.48764    5.39008     
C           107.93      18.54       9.56        
C           106.08      17.77       8.31        
C           106.61      18.05       9.61        
C           110.95      18.45       4.23        
C           109.75      18.78       3.7         
S           110.69      18.1        5.88        
H           107.71      19.15       4.47        
H           109.64      19.02       2.66        
C           108.68      18.85       4.66        
C           109.04      18.56       5.95        
C           115.67      17.83       3.98        
C           114.48      17.9        3.31        
N           115.53      18.49       5.14        
C           114.17      18.86       5.33        
C           113.87      17.57       2.04        
O           114.23      17.08       0.93        
O           113.65      19.52       6.28        
C           111.47      17.44       1.22        
C           116.43      19.47       5.72        
H           116.60194   20.31536    5.05374     
H           117.41      18.93       5.96        
H           116.15      19.79       6.71        
H           110.91      18.32       1.06        
H           110.97207   16.51528    1.51164     
H           112.01      17.23       0.31        
N           112.45      17.81       2.25        
C           113.45      18.29       4.23        
C           112.23      18.14       3.61        
C           119.24      16.27       3.17        
C           118.36      15.98       2.13        
S           118.36      17.07       4.39        
H           116.36      16.66       1.51        
H           118.77      15.47       1.25        
C           117.11      16.63       2.31        
C           116.89      17.19       3.56        
C           122.97      14.4        4.43        
C           122.24      14.03       3.27        
C           122.41      15.49       5.07        
N           120.59      13.9        1.77        
N           121.48      12.91       1.67        
N           122.51      12.96       2.49        
C           121.19      11.97       0.66        
H           122.89      15.93       5.97        
H           120.81      16.84       5.25        
H           120.27395   12.23984    0.13451     
H           122.02      11.92       -0.09       
H           121.0821    10.96293    1.06283     
C           121.19      16.06       4.6         
C           121.08      14.64       2.79        
C           120.55      15.7        3.5         
C           125.84      12.82       6.59        
C           125.2       11.79       5.94        
S           125.03      14.33       6.31        
H           123.46      11.65       4.58        
H           125.36      10.76       6.2         
C           124.19      12.27       5.04        
C           124.0       13.6        5.08        
C           128.51      10.53       9.91        
C           128.32      11.6        9.08        
N           127.51      9.68        9.59        
C           126.58      10.2        8.63        
C           128.87      12.87       8.81        
O           129.8       13.51       9.3         
O           125.52      9.7         8.3         
C           128.15      14.91       7.61        
C           127.7       8.22        9.65        
H           127.72729   7.88567     8.6129      
H           126.86      7.72        10.24       
H           128.61      8.0         10.18       
H           127.27      15.5        7.99        
H           128.42191   15.13898    6.5796      
H           128.86      15.33       8.25        
N           127.98      13.5        7.84        
C           127.15      11.54       8.35        
C           126.91      12.67       7.6         
C           130.71      10.01       13.25       
C           131.32      10.82       12.38       
S           129.27      9.44        12.37       
H           130.94      11.76       10.44       
H           132.18      11.36       12.62       
C           130.66      11.01       11.17       
C           129.51      10.3        10.91       
C           131.21      9.38        17.55       
C           132.05      10.2        16.88       
C           130.2       8.74        16.82       
N           132.77      11.36       15.13       
N           133.51      11.55       16.18       
N           133.18      10.88       17.3        
C           134.88      12.14       16.09       
H           129.61      7.93        17.2        
H           129.45      8.19        14.89       
H           134.76231   13.20615    16.28385    
H           135.23      11.95       15.09       
H           135.55049   11.70743    16.83258    
C           130.17      8.87        15.41       
C           131.84      10.42       15.48       
C           130.9       9.77        14.66       
H           90.98       4.67        12.55       
H           131.09      9.63        18.64       
