472

C           42.06       77.49       20.67       
C           43.0        77.41       19.71       
S           41.36       75.9        20.85       
H           44.09       75.86       18.57       
H           43.56       78.3        19.26       
C           43.32       76.14       19.31       
C           42.49       75.16       19.71       
C           41.42       82.14       21.64       
C           41.18       80.83       22.02       
N           42.3        82.13       20.65       
C           42.65       80.81       20.24       
C           40.34       79.99       22.8        
O           39.5        80.12       23.69       
O           43.54       80.58       19.39       
C           40.23       77.59       23.29       
C           43.27       83.08       20.19       
H           44.21203    82.8691     20.69616    
H           43.0        84.11       20.45       
H           43.45       82.97       19.08       
H           40.95       76.72       23.32       
H           39.20165    77.30435    23.06862    
H           40.29       77.97       24.26       
N           40.69       78.7        22.41       
C           41.84       79.96       21.08       
C           41.57       78.67       21.3        
C           40.12       85.6        23.04       
C           39.88       84.64       23.94       
S           40.79       84.86       21.61       
H           40.29       82.48       24.12       
H           39.33       84.78       24.88       
C           40.41       83.4        23.55       
C           41.0        83.34       22.32       
C           38.6        89.74       23.32       
C           39.34       89.34       22.17       
C           38.48       88.79       24.32       
N           40.71       88.0        20.95       
N           40.53       89.24       20.41       
N           39.71       90.01       21.06       
C           40.95       89.63       19.12       
H           37.86       88.92       25.21       
H           38.83       86.72       24.99       
H           41.87306    89.08581    18.92023    
H           40.2        89.32       18.4        
H           41.08319    90.70956    19.0499     
C           39.07       87.45       24.2        
C           39.92       88.03       22.1        
C           39.68       87.01       23.09       
C           36.69       93.02       24.52       
C           37.31       93.34       23.31       
S           36.89       91.34       24.92       
H           38.7        92.37       21.94       
H           37.27       94.31       22.92       
C           38.07       92.25       22.81       
C           37.99       91.09       23.58       
C           33.65       94.43       27.97       
C           34.21       94.62       26.71       
N           33.99       93.14       28.28       
C           34.99       92.57       27.42       
C           34.28       95.62       25.69       
O           33.94       96.81       25.7        
O           35.77       91.69       27.82       
C           35.39       95.87       23.52       
C           33.22       92.21       29.1        
H           32.93335    91.23119    28.71547    
H           32.25       92.59       29.38       
H           33.73       92.09       30.0        
H           35.23       95.25       22.62       
H           36.19465    96.60528    23.52       
H           34.44       96.42       23.32       
N           35.27       95.09       24.75       
C           35.07       93.57       26.36       
C           35.73       93.87       25.17       
C           31.41       96.25       30.63       
C           31.27       96.82       29.4        
S           32.51       94.96       30.5        
H           32.08       96.77       27.41       
H           30.58       97.6        29.27       
C           31.99       96.27       28.36       
C           32.72       95.17       28.81       
C           28.75       96.76       34.03       
C           29.01       97.79       33.14       
C           29.58       95.56       33.8        
N           29.89       98.85       31.37       
N           28.99       99.57       31.96       
N           28.48       99.03       33.05       
C           28.37       100.83      31.45       
H           29.71       94.74       34.54       
H           31.06       94.56       32.67       
H           28.86155    101.05084   30.50252    
H           27.24       100.73      31.39       
H           28.60808    101.66689   32.10653    
C           30.45       95.45       32.75       
C           29.92       97.67       32.09       
C           30.64       96.48       31.86       
C           27.58       97.5        37.69       
C           27.36       96.19       37.45       
S           28.21       98.21       36.26       
H           27.34       94.75       35.75       
H           26.97       95.56       38.24       
C           27.54       95.79       36.09       
C           28.0        96.83       35.27       
C           25.94       98.14       42.18       
C           26.78       98.54       41.11       
N           25.17       97.0        41.65       
C           25.49       96.71       40.28       
C           27.71       99.53       40.72       
O           28.14       100.51      41.28       
O           24.87       95.9        39.64       
C           29.39       99.59       38.94       
C           24.15       96.18       42.33       
H           24.62215    95.27927    42.72225    
H           23.52       96.74       43.06       
H           23.42       95.74       41.63       
H           29.52       99.71       37.89       
H           30.18747    99.00383    39.39667    
H           29.51       100.61      39.42       
N           28.09       99.17       39.4        
C           26.44       97.79       39.89       
C           27.2        98.21       38.88       
C           25.74       99.39       45.88       
C           26.12       100.41      45.08       
S           25.2        98.07       44.91       
H           26.43       100.93      43.0        
H           26.5        101.3       45.42       
C           26.11       100.15      43.68       
C           25.65       98.9        43.38       
C           26.11       99.01       50.23       
C           26.49       100.18      49.56       
C           25.56       98.0        49.43       
N           26.66       101.63      47.87       
N           26.92       102.21      49.03       
N           26.85       101.38      50.06       
C           27.74       103.38      49.12       
H           25.24       97.08       49.82       
H           25.01       97.28       47.39       
H           28.1322     103.63671   48.13594    
H           27.15       104.21      49.52       
H           28.50392    103.28005   49.89106    
C           25.36       98.15       48.01       
C           26.37       100.32      48.14       
C           25.78       99.31       47.3        
C           28.1        97.31       53.24       
C           28.03       98.68       53.53       
S           27.11       96.96       51.8        
H           27.26       100.54      52.56       
H           28.49       99.13       54.38       
C           27.29       99.45       52.55       
C           26.71       98.62       51.55       
C           31.85       95.83       55.88       
C           30.76       95.55       55.12       
N           31.99       97.17       55.87       
C           30.82       97.79       55.31       
C           30.08       94.39       54.56       
O           30.26       93.18       54.5        
O           30.6        98.95       55.41       
C           28.05       94.08       53.15       
C           33.19       98.02       55.71       
H           33.45462    98.13142    54.65849    
H           34.0        97.5        56.15       
H           33.15       98.97       56.27       
H           27.91       94.32       52.11       
H           27.05885    94.13256    53.60052    
H           28.34       93.04       53.21       
N           28.99       94.99       53.81       
C           30.03       96.73       54.69       
C           29.01       96.4        53.91       
C           34.33       92.82       56.5        
C           34.68       93.88       57.3        
S           33.0        93.33       55.53       
H           34.0        95.95       57.77       
H           35.44       93.74       58.05       
C           33.86       95.07       57.12       
C           32.84       94.87       56.22       
C           35.68       88.62       55.83       
C           36.49       89.61       56.43       
C           34.45       89.1        55.57       
N           37.1        91.57       57.25       
N           38.11       90.7        57.21       
N           37.81       89.49       56.8        
C           39.3        90.93       58.03       
H           33.69       88.46       55.05       
H           33.04       90.68       55.55       
H           39.30708    91.97857    58.32757    
H           39.19       90.33       58.99       
H           40.18385    90.73042    57.42413    
C           34.03       90.41       55.82       
C           36.06       90.97       56.73       
C           34.76       91.44       56.39       
C           37.19       85.29       54.37       
C           35.83       85.13       54.5        
S           37.76       86.82       54.94       
H           34.17       86.51       55.26       
H           35.36       84.24       54.04       
C           35.24       86.28       55.08       
C           36.12       87.32       55.36       
C           40.46       83.97       51.28       
C           39.6        83.49       52.28       
N           40.56       85.35       51.36       
C           39.58       85.85       52.25       
C           39.06       82.4        52.96       
O           39.31       81.24       52.89       
O           39.09       86.98       52.22       
C           37.29       81.99       54.68       
C           41.68       86.19       50.95       
H           42.05668    86.74511    51.8091     
H           41.42       86.81       50.11       
H           42.49       85.61       50.55       
H           36.25       82.16       54.46       
H           37.41232    82.32819    55.70896    
H           37.49       80.9        54.48       
N           38.01       82.9        53.82       
C           39.0        84.66       52.89       
C           37.99       84.3        53.67       
C           41.84       82.12       48.06       
C           41.54       81.15       48.95       
S           41.48       83.68       48.77       
H           40.52       81.05       50.87       
H           41.58       80.06       48.72       
C           40.97       81.72       50.18       
C           41.02       83.07       50.31       
C           43.77       81.96       44.1        
C           43.1        80.79       44.57       
C           43.69       83.03       44.86       
N           41.93       79.57       46.1        
N           42.22       78.91       44.96       
N           43.03       79.51       44.1        
C           41.6        77.72       44.6        
H           44.23       83.92       44.62       
H           43.11       83.86       46.72       
H           40.98906    77.41093    45.44813    
H           40.99       77.96       43.73       
H           42.35384    77.00206    44.27692    
C           42.97       82.99       46.08       
C           42.44       80.79       45.89       
C           42.36       81.93       46.68       
C           46.06       82.65       40.98       
C           45.44       81.46       40.75       
S           45.46       83.42       42.42       
H           43.97       80.23       41.84       
H           45.73       80.82       39.96       
C           44.49       81.14       41.76       
C           44.43       82.08       42.76       
C           50.35       82.04       38.92       
C           49.43       82.92       39.4        
N           49.82       80.77       39.0        
C           48.52       80.83       39.72       
C           49.05       84.28       39.57       
O           49.63       85.26       39.39       
O           47.81       79.86       39.89       
C           46.98       85.53       40.32       
C           50.13       79.67       37.96       
H           49.25657    79.45522    37.3443     
H           50.57       78.79       38.45       
H           50.9        79.94       37.2        
H           46.48       85.66       41.25       
H           46.2367     85.6599     39.5334     
H           47.58       86.43       40.13       
N           47.75       84.31       40.19       
C           48.26       82.22       39.93       
C           47.32       83.02       40.44       
C           54.07       82.57       37.65       
C           53.33       83.68       37.62       
S           53.01       81.37       38.29       
H           51.32       84.46       38.08       
H           53.76       84.61       37.39       
C           52.03       83.67       38.05       
C           51.6        82.4        38.3        
C           58.35       82.16       36.88       
C           57.52       81.03       37.15       
C           57.75       83.36       37.09       
N           55.77       79.91       37.48       
N           56.81       79.1        37.48       
N           57.94       79.72       37.25       
C           56.69       77.7        37.81       
H           58.36       84.24       37.04       
H           55.91       84.46       37.5        
H           55.62462    77.49539    37.91583    
H           57.1        77.14       37.03       
H           57.20635    77.50902    38.75075    
C           56.33       83.5        37.31       
C           56.17       81.19       37.43       
C           55.51       82.43       37.44       
C           62.16       81.5        35.36       
C           61.93       82.8        35.72       
S           60.63       80.71       35.66       
H           60.55       84.08       36.61       
H           62.66       83.53       35.52       
C           60.73       83.06       36.34       
C           59.78       82.03       36.43       
C           66.13       81.83       32.56       
C           65.21       81.1        33.19       
N           65.73       83.11       32.78       
C           64.51       83.25       33.61       
C           64.71       79.78       33.26       
O           65.02       78.77       32.67       
O           64.05       84.32       33.99       
C           62.83       78.55       34.3        
C           65.99       84.26       31.94       
H           66.66196    84.93896    32.46497    
H           66.45       84.02       31.02       
H           65.08       84.78       31.71       
H           61.78       78.79       34.4        
H           63.07249    78.04363    35.23429    
H           62.99       77.87       33.36       
N           63.55       79.83       34.14       
C           64.24       81.88       33.96       
C           63.27       81.09       34.55       
C           69.4        81.07       30.45       
C           68.82       79.88       30.83       
S           68.4        82.38       30.86       
H           67.15       79.28       32.12       
H           69.29       78.88       30.59       
C           67.68       80.07       31.66       
C           67.23       81.4        31.77       
C           73.22       81.98       28.34       
C           72.71       80.67       28.39       
C           72.48       82.83       29.14       
N           71.37       78.95       28.9        
N           72.28       78.65       28.07       
N           73.12       79.61       27.76       
C           72.84       77.28       28.04       
H           72.75       83.89       29.19       
H           70.62       83.33       30.28       
H           72.09359    76.49903    28.18514    
H           73.31       77.11       27.06       
H           73.63288    77.18544    28.78196    
C           71.24       82.51       29.77       
C           71.55       80.26       29.14       
C           70.73       81.23       29.78       
C           76.2        82.57       25.7        
C           76.06       83.69       26.55       
S           74.92       81.43       26.04       
H           74.64       84.35       28.18       
H           76.75       84.54       26.54       
C           74.94       83.62       27.43       
C           74.34       82.38       27.46       
C           80.4        83.57       23.41       
C           79.21       82.81       23.45       
N           80.49       84.08       24.7        
C           79.29       84.01       25.53       
C           78.34       81.82       22.7        
O           78.55       81.1        21.74       
O           79.37       84.47       26.66       
C           76.16       80.86       23.03       
C           81.67       84.14       25.46       
H           81.86306    83.11956    25.79095    
H           82.53       84.67       24.96       
H           81.66       84.76       26.29       
H           75.2        81.18       23.37       
H           76.31286    79.78301    23.09948    
H           76.08       81.17       22.0        
N           77.21       81.65       23.61       
C           78.45       83.2        24.64       
C           77.26       82.5        24.7        
C           83.3        84.06       20.73       
C           82.46       83.04       20.4        
S           82.8        84.61       22.28       
H           80.84       81.84       21.18       
H           82.54       82.44       19.5        
C           81.5        82.68       21.32       
C           81.41       83.57       22.39       
C           86.71       85.95       18.58       
C           86.08       84.83       18.03       
C           86.11       86.42       19.69       
N           84.65       83.08       17.95       
N           85.5        83.07       16.93       
N           86.36       84.09       16.93       
C           85.26       82.3        15.77       
H           86.59       87.22       20.22       
H           84.89       86.17       21.4        
H           84.56193    81.49722    16.00734    
H           84.85       83.0        15.09       
H           86.1872     81.89846    15.36115    
C           85.07       85.78       20.41       
C           84.98       84.19       18.69       
C           84.45       84.68       19.94       
C           89.24       88.77       17.57       
C           89.81       87.64       16.97       
S           87.62       88.53       18.17       
H           89.15       85.56       16.88       
H           90.71       87.6        16.4        
C           88.93       86.54       17.24       
C           87.81       86.79       17.99       
C           89.23       93.47       18.43       
C           89.66       92.42       17.61       
N           88.91       92.82       19.61       
C           88.86       91.39       19.51       
C           90.26       92.05       16.35       
O           90.66       92.77       15.45       
O           88.69       90.68       20.49       
C           90.15       90.07       14.92       
C           88.76       93.27       20.96       
H           87.70003    93.15915    21.18862    
H           88.95       94.33       20.99       
H           89.39       92.73       21.65       
H           89.39       89.35       14.81       
H           91.07373    89.6332     14.54048    
H           89.88       90.93       14.3        
N           90.3        90.59       16.29       
C           89.41       91.14       18.2        
C           89.78       90.11       17.39       
C           88.33       97.22       18.02       
C           88.97       96.8        16.91       
S           88.07       95.86       19.09       
H           89.94       94.93       16.19       
H           89.07       97.5        16.09       
C           89.41       95.47       17.01       
C           89.09       94.86       18.12       
C           85.57       100.63      18.36       
C           86.1        100.02      19.51       
C           86.08       100.11      17.17       
N           87.43       98.68       20.71       
N           86.56       99.43       21.47       
N           85.82       100.29      20.81       
C           86.56       99.18       22.91       
H           85.68       100.48      16.22       
H           87.22       98.69       16.1        
H           87.36665    98.50184    23.1884     
H           86.59       100.17      23.46       
H           85.60373    98.74171    23.19555    
C           87.04       99.06       17.09       
C           87.15       99.04       19.47       
C           87.54       98.47       18.19       
C           82.29       102.95      19.12       
C           82.76       103.2       17.87       
S           83.28       101.62      19.69       
H           84.35       102.57      16.54       
H           82.4        104.08      17.32       
C           83.84       102.4       17.45       
C           84.4        101.55      18.38       
C           79.86       104.34      23.03       
C           79.88       104.23      21.67       
N           80.97       103.66      23.46       
C           81.78       103.18      22.39       
C           79.25       104.71      20.45       
O           78.18       105.37      20.24       
O           82.81       102.65      22.66       
C           79.64       104.57      18.02       
C           81.47       103.41      24.82       
H           82.22003    104.15289   25.09144    
H           82.01       102.46      24.75       
H           80.69       103.29      25.6        
H           79.75       103.76      17.32       
H           80.12316    105.50947   17.75158    
H           78.55       104.68      18.0        
N           80.02       104.09      19.36       
C           81.07       103.53      21.15       
C           81.17       103.49      19.81       
C           77.33       105.88      25.54       
C           76.73       105.78      24.35       
S           78.99       105.47      25.39       
H           77.12       104.93      22.35       
H           75.64       106.05      24.2        
C           77.52       105.14      23.39       
C           78.8        104.86      23.78       
C           75.35       107.57      29.14       
C           76.69       107.07      29.22       
C           74.74       107.42      27.95       
N           78.41       106.08      28.5        
N           78.47       106.32      29.78       
N           77.43       106.86      30.33       
C           79.31       105.57      30.71       
H           73.72       107.71      27.86       
H           74.7        106.84      25.89       
H           80.177      105.1436    30.20543    
H           78.72       104.79      31.26       
H           79.60925    106.1977    31.54937    
C           75.37       106.86      26.79       
C           77.27       106.53      28.01       
C           76.7        106.41      26.71       
H           42.19       74.37       19.03       
H           74.95       108.14      29.94       
