472

C           19.81       32.81       39.79       
C           20.36       32.11       38.73       
S           19.73       34.5        39.35       
H           21.27       32.59       36.78       
H           20.4        30.98       38.64       
C           20.78       32.98       37.67       
C           20.58       34.3        37.85       
C           19.92       29.69       43.47       
C           19.51       30.9        42.98       
N           20.69       29.17       42.45       
C           20.63       29.97       41.32       
C           18.74       32.07       43.3        
O           18.13       32.37       44.23       
O           21.3        29.63       40.37       
C           18.06       34.25       42.14       
C           21.64       28.08       42.49       
H           21.25125    27.2305     41.92847    
H           21.88       27.77       43.51       
H           22.55       28.4        42.04       
H           17.82       34.61       41.16       
H           18.52385    35.02783    42.74657    
H           17.1        34.0        42.54       
N           18.82       32.94       42.15       
C           19.9        31.13       41.6        
C           19.59       32.35       41.09       
C           19.4        27.59       46.83       
C           19.02       28.87       47.08       
S           19.85       27.46       45.18       
H           19.01       30.8        45.98       
H           18.39       29.18       47.93       
C           19.35       29.78       46.0        
C           19.82       29.18       44.82       
C           18.11       23.89       48.74       
C           19.22       23.88       47.92       
C           17.64       25.13       49.06       
N           20.76       24.8        46.51       
N           20.74       23.46       46.58       
N           19.95       22.9        47.42       
C           21.18       22.55       45.59       
H           16.81       25.09       49.75       
H           17.51       27.26       48.79       
H           21.83706    23.07418    44.89602    
H           21.69       21.75       46.1        
H           20.32332    22.196      45.01652    
C           18.08       26.38       48.52       
C           19.71       25.1        47.33       
C           19.12       26.36       47.58       
C           16.66       20.61       50.63       
C           16.82       20.31       49.3        
S           16.85       22.27       50.82       
H           17.7        21.33       47.61       
H           16.52       19.33       48.91       
C           17.39       21.42       48.6        
C           17.5        22.63       49.18       
C           13.76       17.03       51.94       
C           14.61       18.01       52.33       
N           13.38       17.3        50.6        
C           14.25       18.34       50.05       
C           15.14       18.67       53.47       
O           15.02       18.51       54.68       
O           14.22       18.72       48.88       
C           16.82       20.56       53.74       
C           12.15       16.89       49.88       
H           11.66352    17.71907    49.36611    
H           11.43       16.56       50.69       
H           12.34       15.97       49.29       
H           16.78       21.62       53.48       
H           17.83919    20.17416    53.76184    
H           16.42       20.7        54.76       
N           15.9        19.78       52.92       
C           15.04       18.75       51.21       
C           15.91       19.77       51.53       
C           12.28       13.84       53.8        
C           12.93       14.61       54.77       
S           12.49       14.55       52.17       
H           14.07       16.51       54.68       
H           12.95       14.32       55.84       
C           13.51       15.78       54.16       
C           13.26       15.99       52.8        
C           9.88        10.17       54.2        
C           9.87        10.98       53.01       
C           10.66       10.65       55.26       
N           10.32       12.66       51.59       
N           9.62        11.63       50.99       
N           9.23        10.74       51.84       
C           9.43        11.48       49.53       
H           10.79       10.13       56.19       
H           12.11       12.22       55.85       
H           10.32016    11.86671    49.03384    
H           9.26        10.4        49.33       
H           8.55241     12.01231    49.16314    
C           11.38       11.92       55.09       
C           10.57       12.23       52.88       
C           11.4        12.69       53.97       
C           8.36        6.51        54.28       
C           7.5         7.32        53.66       
S           9.8         7.44        54.67       
H           7.26        9.53        53.37       
H           6.56        6.89        53.27       
C           7.88        8.72        53.65       
C           9.09        8.96        54.25       
C           6.97        1.97        53.35       
C           7.78        2.86        54.09       
N           6.02        2.75        52.71       
C           6.36        4.14        52.76       
C           8.9         2.9         55.03       
O           9.59        2.03        55.57       
O           5.72        5.0         52.12       
C           10.15       4.56        56.24       
C           5.01        2.34        51.71       
H           4.16537     1.77692     52.10705    
H           4.63        3.26        51.19       
H           5.57        1.75        50.98       
H           9.87        5.52        56.62       
H           11.21718    4.73324     56.1014     
H           10.06       3.75        56.99       
N           9.31        4.26        55.07       
C           7.5         4.18        53.67       
C           8.34        5.03        54.35       
C           6.86        -2.04       53.12       
C           7.63        -1.71       54.24       
S           6.45        -0.62       52.24       
H           8.2         0.29        55.2        
H           8.03        -2.43       54.88       
C           7.66        -0.24       54.46       
C           6.98        0.46        53.51       
C           6.71        -6.01       50.95       
C           5.62        -5.16       51.05       
C           7.82        -5.4        51.54       
N           4.4         -3.34       51.65       
N           3.8         -4.19       50.79       
N           4.41        -5.28       50.46       
C           2.34        -4.03       50.55       
H           8.73        -5.86       51.56       
H           8.82        -3.89       52.63       
H           2.14815     -2.96009    50.46883    
H           2.1         -4.5        49.61       
H           1.76132     -4.52017    51.33292    
C           7.85        -4.17       52.27       
C           5.6         -3.86       51.74       
C           6.74        -3.39       52.49       
C           7.14        -9.76       49.78       
C           6.15        -9.14       49.05       
S           7.84        -8.51       50.85       
H           5.28        -7.19       48.69       
H           5.68        -9.58       48.23       
C           5.94        -7.75       49.29       
C           6.75        -7.25       50.26       
C           6.77        -14.31      48.28       
C           7.44        -13.33      48.94       
N           5.71        -13.68      47.62       
C           5.64        -12.29      48.02       
C           8.59        -13.2       49.84       
O           9.41        -13.96      50.26       
O           4.7         -11.61      47.73       
C           9.56        -11.24      51.14       
C           4.86        -14.23      46.54       
H           4.68566     -13.61982   45.65378    
H           3.92        -14.6       46.94       
H           5.22        -15.18      46.18       
H           9.14        -10.54      51.82       
H           10.43268    -10.90824   50.57745    
H           9.83        -12.05      51.89       
N           8.53        -11.83      50.28       
C           6.84        -12.08      48.83       
C           7.45        -11.15      49.65       
C           6.38        -18.19      48.58       
C           7.63        -17.83      49.0        
S           5.6         -16.73      48.1        
H           8.94        -15.91      49.11       
H           8.25        -18.52      49.51       
C           7.96        -16.43      48.84       
C           6.94        -15.69      48.34       
C           4.17        -22.09      49.2        
C           5.23        -21.65      49.99       
C           3.9         -21.17      48.21       
N           6.95        -20.26      50.65       
N           6.84        -21.34      51.32       
N           5.86        -22.2       51.02       
C           8.11        -21.92      51.87       
H           3.19        -21.38      47.48       
H           4.34        -19.19      47.1        
H           8.46391     -21.32788   52.71394    
H           7.88        -22.93      52.18       
H           8.84437     -21.94825   51.06502    
C           4.69        -19.91      47.9        
C           5.95        -20.37      49.75       
C           5.62        -19.42      48.76       
C           2.61        -25.64      49.9        
C           1.8         -24.9       49.06       
S           3.91        -24.58      50.41       
H           1.75        -22.95      48.1        
H           0.87        -25.36      48.61       
C           2.26        -23.56      48.76       
C           3.43        -23.3       49.33       
C           -0.48       -28.13      52.41       
C           0.84        -28.02      51.97       
N           -1.22       -27.39      51.54       
C           -0.48       -26.62      50.59       
C           2.18        -28.6       52.16       
O           2.57        -29.39      53.03       
O           -0.99       -25.78      49.8        
C           4.39        -27.61      51.75       
C           -2.58       -27.63      51.23       
H           -2.69503    -28.14045   50.27381    
H           -3.19       -26.72      51.33       
H           -3.13       -28.32      51.93       
H           4.75        -26.58      52.03       
H           5.01547     -28.04415   50.97       
H           4.62        -28.14      52.61       
N           2.98        -27.63      51.47       
C           0.85        -27.03      50.91       
C           2.21        -26.74      50.69       
C           -1.38       -30.79      55.08       
C           -2.41       -29.9       55.05       
S           -0.18       -30.43      53.86       
H           -2.87       -28.02      54.09       
H           -3.2        -29.97      55.8        
C           -2.29       -28.92      54.02       
C           -1.02       -29.01      53.37       
C           -0.04       -33.9       58.0        
C           -1.14       -33.08      58.26       
C           0.59        -33.59      56.81       
N           -2.76       -31.55      57.85       
N           -2.89       -32.16      59.05       
N           -1.91       -32.91      59.42       
C           -4.04       -31.79      59.89       
H           1.51        -34.07      56.57       
H           0.72        -32.51      54.99       
H           -4.76409    -31.17949   59.35048    
H           -4.52       -32.71      60.25       
H           -3.67281    -31.21098   60.73735    
C           0.08        -32.62      55.87       
C           -1.63       -32.08      57.33       
C           -1.01       -31.87      56.05       
C           2.27        -36.43      59.88       
C           1.76        -35.56      60.73       
S           1.48        -36.1       58.35       
H           0.5         -33.87      60.96       
H           2.11        -35.52      61.74       
C           0.76        -34.71      60.33       
C           0.63        -34.74      58.94       
C           6.6         -37.86      61.53       
C           5.56        -38.02      60.54       
N           6.31        -36.65      62.26       
C           5.03        -36.15      61.86       
C           5.11        -38.81      59.42       
O           5.56        -39.78      58.83       
O           4.47        -35.19      62.38       
C           2.97        -39.12      58.27       
C           7.25        -35.71      62.76       
H           7.22914     -34.81297   62.14112    
H           8.27        -36.06      62.78       
H           7.04        -35.49      63.82       
H           2.58        -38.5       57.45       
H           2.17582     -39.69125   58.75069    
H           3.65        -39.65      57.61       
N           3.78        -38.31      59.19       
C           4.55        -37.02      60.8        
C           3.48        -37.18      59.93       
C           9.53        -40.11      62.71       
C           8.78        -40.72      61.8        
S           8.95        -38.51      62.97       
H           6.91        -40.46      60.68       
H           9.07        -41.65      61.39       
C           7.66        -40.03      61.36       
C           7.65        -38.81      61.85       
C           13.03       -42.03      64.91       
C           12.67       -40.61      65.11       
C           12.17       -42.62      64.0        
N           11.55       -38.73      64.63       
N           12.56       -38.57      65.5        
N           13.23       -39.63      65.85       
C           13.11       -37.22      65.58       
H           12.24       -43.65      63.78       
H           10.31       -42.63      62.67       
H           12.31123    -36.53334   65.29973    
H           13.45       -36.98      66.53       
H           13.93759    -37.10682   64.87973    
C           11.08       -41.99      63.21       
C           11.58       -39.99      64.31       
C           10.7        -40.63      63.39       
C           16.02       -43.74      66.96       
C           15.45       -44.58      66.08       
S           15.27       -42.18      66.77       
H           13.86       -44.73      64.7        
H           15.78       -45.58      65.96       
C           14.36       -44.06      65.38       
C           14.11       -42.78      65.57       
C           20.35       -45.9       68.11       
C           19.34       -44.9       68.37       
N           19.88       -46.67      67.06       
C           18.55       -46.24      66.72       
C           19.03       -43.78      69.21       
O           19.68       -43.19      70.1        
O           17.97       -46.75      65.83       
C           17.1        -42.24      69.57       
C           20.46       -47.71      66.18       
H           21.2524     -47.34651   65.52572    
H           20.76       -48.57      66.77       
H           19.72       -48.05      65.48       
H           15.99       -42.21      69.53       
H           17.4957     -41.2654    69.28421    
H           17.34       -42.52      70.59       
N           17.77       -43.25      68.79       
C           18.27       -45.02      67.5        
C           17.34       -43.95      67.63       
C           23.65       -45.45      70.28       
C           23.91       -46.34      69.18       
S           21.94       -45.18      70.33       
H           22.67       -47.14      67.54       
H           24.86       -46.59      68.83       
C           22.7        -46.63      68.45       
C           21.64       -45.9       68.79       
C           26.29       -43.2       72.99       
C           26.8        -43.7       71.74       
C           24.88       -43.32      73.12       
N           26.74       -45.12      69.98       
N           27.91       -44.45      70.14       
N           28.04       -43.68      71.19       
C           29.08       -44.84      69.29       
H           24.37       -42.86      73.97       
H           23.03       -43.94      72.31       
H           28.73067    -45.50955   68.50401    
H           29.41       -43.88      68.87       
H           29.86223    -45.347     69.85495    
C           24.11       -44.04      72.2        
C           25.96       -44.54      70.93       
C           24.57       -44.73      71.14       
C           28.55       -40.76      75.34       
C           27.63       -41.42      76.05       
S           28.41       -41.29      73.64       
H           25.88       -42.78      75.64       
H           27.52       -41.2       77.08       
C           26.75       -42.23      75.25       
C           27.09       -42.42      73.95       
C           31.64       -38.79      78.39       
C           31.24       -38.95      77.1        
N           30.94       -39.71      79.2        
C           29.97       -40.48      78.42       
C           31.3        -38.31      75.79       
O           31.93       -37.37      75.31       
O           29.33       -41.47      78.91       
C           29.79       -38.35      73.89       
C           30.63       -39.58      80.6        
H           31.08514    -40.39072   81.16893    
H           31.04       -38.74      81.06       
H           29.54       -39.56      80.78       
H           28.74       -38.6       73.73       
H           30.31497    -38.50821   72.94794    
H           29.75       -37.25      74.12       
N           30.26       -38.99      75.06       
C           30.1        -39.89      77.08       
C           29.67       -39.98      75.8        
C           33.41       -35.53      79.71       
C           33.87       -36.61      80.42       
S           32.32       -36.04      78.42       
H           33.46       -38.75      80.49       
H           34.46       -36.56      81.3        
C           33.33       -37.87      80.02       
C           32.51       -37.75      78.87       
C           33.81       -31.26      80.49       
C           34.91       -32.16      80.66       
C           32.62       -31.85      80.15       
N           35.98       -34.21      80.59       
N           36.81       -33.2       80.89       
N           36.24       -31.99      80.96       
C           38.21       -33.3       80.66       
H           31.76       -31.27      80.04       
H           31.49       -33.6       79.81       
H           38.38688    -34.37546   80.67415    
H           38.3        -32.92      79.61       
H           38.79697    -32.75446   81.39889    
C           32.5        -33.27      79.96       
C           34.77       -33.54      80.33       
C           33.54       -34.12      80.0        
C           33.36       -27.51      81.6        
C           34.71       -27.75      81.57       
S           32.56       -28.94      81.08       
H           36.07       -29.4       81.19       
H           35.47       -27.04      81.94       
C           35.07       -29.04      81.08       
C           33.98       -29.81      80.77       
C           29.69       -24.64      82.08       
C           30.92       -24.98      82.6        
N           29.55       -25.33      80.85       
C           30.65       -26.17      80.59       
C           31.87       -24.83      83.66       
O           31.86       -24.16      84.67       
O           30.8        -26.86      79.61       
C           34.25       -25.38      83.98       
C           28.58       -25.3       79.83       
H           28.03307    -26.23759   79.92944    
H           29.04       -25.1       78.88       
H           27.95       -24.42      80.0        
H           35.09       -25.32      83.2        
H           34.51438    -26.166     84.6874     
H           34.14       -24.39      84.48       
N           32.98       -25.65      83.3        
C           31.51       -25.91      81.72       
C           32.69       -26.34      82.14       
C           26.77       -22.29      83.44       
C           27.71       -22.39      84.39       
S           27.08       -23.45      82.18       
H           29.73       -23.23      84.48       
H           27.74       -21.8       85.33       
C           28.84       -23.16      83.89       
C           28.67       -23.81      82.75       
C           22.76       -20.4       83.51       
C           23.31       -20.91      84.73       
C           23.5        -20.67      82.42       
N           24.96       -21.87      86.08       
N           23.89       -21.3       86.71       
N           22.91       -20.92      85.98       
C           23.53       -21.64      88.02       
H           23.23       -20.28      81.49       
H           25.22       -21.37      81.45       
H           24.34547    -21.97172   88.6627     
H           23.05       -20.77      88.43       
H           22.81627    -22.45466   87.89744    
C           24.75       -21.27      82.44       
C           24.63       -21.6       84.72       
C           25.41       -21.76      83.56       
C           19.48       -18.25      83.71       
C           19.45       -18.93      82.55       
S           20.83       -18.74      84.63       
H           20.81       -20.46      81.52       
H           18.61       -18.95      81.87       
C           20.63       -19.76      82.4        
C           21.49       -19.76      83.42       
C           15.13       -15.92      83.69       
C           16.25       -16.32      84.38       
N           15.19       -16.56      82.48       
C           16.49       -17.14      82.27       
C           16.95       -16.18      85.65       
O           16.64       -15.62      86.72       
O           16.78       -17.68      81.23       
C           18.99       -17.06      86.72       
C           14.45       -16.53      81.2        
H           14.85021    -15.92618   80.38555    
H           13.47       -16.2       81.31       
H           14.23       -17.58      80.92       
H           20.05       -16.89      86.42       
H           18.79592    -17.98726   87.2591     
H           18.87       -16.21      87.41       
N           18.2        -16.87      85.49       
C           17.2        -17.0       83.55       
C           18.4        -17.37      84.24       
C           11.79       -13.89      84.64       
C           12.67       -13.95      85.74       
S           12.54       -14.76      83.33       
H           14.54       -14.78      86.23       
H           12.56       -13.46      86.69       
C           13.83       -14.65      85.47       
C           14.02       -15.18      84.22       
C           7.9         -11.8       84.21       
C           8.56        -11.88      85.45       
C           8.49        -12.5       83.18       
N           10.18       -12.43      86.8        
N           9.26        -11.7       87.4        
N           8.31        -11.34      86.63       
C           9.51        -11.03      88.7        
H           7.99        -12.45      82.23       
H           10.23       -13.6       82.39       
H           8.53965     -10.92453   89.18518    
H           10.03       -10.08      88.56       
H           10.10982    -11.69486   89.3215     
C           9.78        -13.11      83.27       
C           9.81        -12.58      85.54       
C           10.5        -13.2       84.43       
H           20.37       34.91       37.01       
H           7.4         -10.87      83.94       
