472

C           43.29       95.84       82.58       
C           43.14       95.47       83.89       
S           41.77       95.91       81.8        
H           41.42       94.96       85.18       
H           43.98       95.37       84.54       
C           41.73       95.1        84.12       
C           40.81       95.49       83.21       
C           48.01       96.95       82.2        
C           46.82       96.59       81.55       
N           47.83       96.98       83.52       
C           46.41       96.71       83.8        
C           46.18       96.34       80.23       
O           46.57       96.33       79.06       
O           45.92       96.9        84.92       
C           43.87       95.77       79.47       
C           48.85       97.27       84.55       
H           48.67226    96.85299    85.54126    
H           49.06       98.32       84.6        
H           49.76       96.79       84.25       
H           42.95       96.21       79.49       
H           43.89969    94.69386    79.2993     
H           44.39       96.06       78.54       
N           44.76       96.16       80.54       
C           45.81       96.38       82.52       
C           44.59       96.16       81.92       
C           51.31       98.44       80.53       
C           50.69       97.45       79.75       
S           50.37       98.54       82.01       
H           48.9        96.12       79.85       
H           51.1        97.24       78.76       
C           49.51       96.87       80.34       
C           49.27       97.27       81.58       
C           54.79       100.96      79.92       
C           54.33       100.09      78.89       
C           53.95       100.95      81.04       
N           53.11       98.47       77.94       
N           54.12       98.85       77.22       
N           54.86       99.92       77.71       
C           54.77       97.89       76.39       
H           54.15       101.61      81.92       
H           52.23       100.32      82.14       
H           54.00631    97.29602    75.88794    
H           55.18       98.42       75.5        
H           55.52874    97.2968     76.90042    
C           52.81       100.2       81.2        
C           53.2        99.25       79.06       
C           52.44       99.24       80.3        
C           57.94       103.29      80.31       
C           57.6        103.29      78.96       
S           56.96       102.12      81.13       
H           56.03       102.37      77.73       
H           58.06       103.91      78.11       
C           56.5        102.38      78.74       
C           55.98       101.75      79.78       
C           61.11       106.85      80.55       
C           60.46       105.81      81.15       
N           60.54       107.06      79.29       
C           59.54       105.98      78.99       
C           60.36       105.04      82.42       
O           61.05       104.99      83.4        
O           58.9        106.01      78.01       
C           58.55       103.73      83.44       
C           61.11       107.79      78.13       
H           61.69771    107.11629   77.50646    
H           61.89       108.48      78.41       
H           60.41       108.35      77.56       
H           58.55       102.58      83.46       
H           57.59204    104.2442    83.51748    
H           59.25       104.04      84.29       
N           59.3        104.1       82.24       
C           59.5        105.23      80.24       
C           58.86       104.2       80.9        
C           63.98       109.33      81.82       
C           64.01       108.14      82.51       
S           62.64       109.28      80.73       
H           62.91       106.12      82.5        
H           64.77       107.92      83.23       
C           62.99       107.18      82.12       
C           62.21       107.58      81.08       
C           66.07       113.11      81.98       
C           65.78       112.45      80.74       
C           65.74       112.46      83.14       
N           64.86       110.86      79.45       
N           65.46       111.83      78.78       
N           66.14       112.74      79.48       
C           65.12       112.0       77.33       
H           66.02       112.83      84.08       
H           64.95       110.69      84.06       
H           64.66538    111.08366   76.95352    
H           64.43       112.78      77.13       
H           66.05222    112.07888   76.77067    
C           65.12       111.18      83.1        
C           65.17       111.22      80.72       
C           64.76       110.51      81.97       
C           67.29       116.66      82.98       
C           67.69       116.42      81.7        
S           66.3        115.33      83.47       
H           67.63       114.83      80.2        
H           68.37       117.07      81.14       
C           67.31       115.16      81.17       
C           66.58       114.42      82.07       
C           68.87       121.06      83.36       
C           68.45       119.93      83.98       
N           68.72       120.91      82.0        
C           68.24       119.64      81.75       
C           68.39       119.28      85.29       
O           68.64       119.64      86.43       
O           68.14       119.22      80.65       
C           66.88       117.46      86.05       
C           68.99       121.75      80.83       
H           68.15792    122.4481    80.73833    
H           70.0        122.13      80.8        
H           68.86       121.2       79.86       
H           66.76       116.44      85.97       
H           65.90529    117.9439    86.11222    
H           67.33       117.58      86.99       
N           67.73       118.05      85.02       
C           68.04       118.99      82.99       
C           67.58       117.88      83.63       
C           70.49       124.41      84.6        
C           69.85       123.85      85.59       
S           70.29       123.39      83.19       
H           68.5        122.13      85.92       
H           69.77       124.32      86.52       
C           69.11       122.62      85.24       
C           69.26       122.25      83.97       
C           73.14       127.93      84.35       
C           72.44       127.52      85.55       
C           72.84       127.11      83.27       
N           71.06       126.35      86.92       
N           71.61       127.33      87.52       
N           72.43       128.07      86.8        
C           71.24       127.77      88.84       
H           73.22       127.38      82.26       
H           71.98       125.3       82.46       
H           70.55688    127.04419   89.28118    
H           72.16       127.9       89.39       
H           70.72338    128.71248   88.65849    
C           72.01       125.98      83.36       
C           71.59       126.39      85.63       
C           71.33       125.59      84.52       
C           76.21       130.28      85.14       
C           76.02       130.16      83.79       
S           74.93       129.36      85.87       
H           74.73       129.13      82.42       
H           76.73       130.72      83.11       
C           74.89       129.47      83.4        
C           74.16       128.93      84.37       
C           80.52       132.22      85.72       
C           79.27       131.94      86.14       
N           80.59       131.72      84.4        
C           79.37       131.03      84.05       
C           78.41       132.33      87.26       
O           78.28       133.21      88.06       
O           79.27       130.42      83.03       
C           76.11       131.67      87.89       
C           81.53       131.9       83.34       
H           81.32943    132.80974   82.7741     
H           81.58       130.96      82.69       
H           82.51       131.99      83.74       
H           75.56       130.76      88.1        
H           75.4965     132.55374   87.71471    
H           76.54       131.8       88.94       
N           77.25       131.52      87.02       
C           78.56       131.19      85.22       
C           77.32       130.9       85.8        
C           83.68       133.85      87.53       
C           82.55       133.96      88.28       
S           83.2        133.12      86.0        
H           80.57       133.16      88.26       
H           82.46       134.42      89.26       
C           81.46       133.24      87.75       
C           81.53       132.93      86.42       
C           87.62       135.65      88.45       
C           87.3        135.1       87.18       
C           86.54       135.56      89.3        
N           86.02       134.22      85.48       
N           87.28       134.45      85.13       
N           88.02       135.0       86.05       
C           87.86       134.09      83.8        
H           86.62       135.83      90.32       
H           84.55       135.09      89.88       
H           87.22769    133.40851   83.23092    
H           88.06       135.02      83.27       
H           88.84853    133.64447   83.91138    
C           85.26       135.05      88.99       
C           86.07       134.52      86.84       
C           84.96       134.47      87.75       
C           90.49       137.84      90.14       
C           91.1        137.01      89.18       
S           88.76       137.52      90.22       
H           90.37       135.61      87.66       
H           92.15       136.99      88.97       
C           90.14       136.29      88.45       
C           88.82       136.38      88.88       
C           90.04       140.72      93.79       
C           90.82       139.81      93.17       
N           89.15       141.26      92.85       
C           89.19       140.53      91.64       
C           91.99       138.99      93.33       
O           92.76       138.83      94.19       
O           88.4        140.79      90.72       
C           92.87       137.0       92.1        
C           88.37       142.45      92.83       
H           87.31112    142.22011   92.94843    
H           88.46       143.08      91.87       
H           88.68       143.03      93.63       
H           93.14       136.76      91.11       
H           92.39196    136.12241   92.53523    
H           93.78       137.36      92.59       
N           91.96       138.12      92.15       
C           90.36       139.65      91.82       
C           91.13       138.66      91.15       
C           89.4        141.49      97.67       
C           90.56       140.74      97.48       
S           88.76       141.78      96.04       
H           91.77       139.92      95.8        
H           91.1        140.36      98.38       
C           90.93       140.48      96.11       
C           90.08       140.97      95.17       
C           86.42       141.86      100.88      
C           87.41       140.9       100.96      
C           86.58       142.77      99.85       
N           89.14       139.66      100.21      
N           88.61       139.26      101.36      
N           87.65       139.95      101.87      
C           88.8        137.85      101.78      
H           85.97       143.6       99.8        
H           87.63       143.37      98.06       
H           89.73637    137.56294   101.30156   
H           89.01       137.91      102.89      
H           87.9431     137.22161   101.53721   
C           87.59       142.63      98.86       
C           88.41       140.77      99.91       
C           88.45       141.57      98.75       
C           83.12       142.31      102.99      
C           84.08       141.61      103.78      
S           83.86       142.81      101.57      
H           86.05       140.78      103.66      
H           83.84       141.18      104.75      
C           85.36       141.43      103.19      
C           85.38       141.94      101.94      
C           79.39       142.54      105.97      
C           79.91       142.7       104.67      
N           80.44       142.18      106.8       
C           81.65       142.12      105.98      
C           79.48       142.99      103.3       
O           78.41       143.18      102.77      
O           82.65       141.79      106.56      
C           80.69       142.99      101.09      
C           80.37       141.46      108.04      
H           80.34125    140.38191   107.88188   
H           79.44       141.7       108.63      
H           81.18       141.6       108.69      
H           81.44       142.32      100.66      
H           80.83873    143.98862   100.67922   
H           79.7        142.74      100.83      
N           80.73       142.9       102.56      
C           81.3        142.51      104.65      
C           81.81       142.69      103.4       
C           75.54       143.1       106.6       
C           76.29       143.61      107.61      
S           76.62       142.14      105.58      
H           78.42       143.78      108.07      
H           75.97       144.27      108.31      
C           77.67       143.35      107.42      
C           78.04       142.77      106.3       
C           71.23       143.37      105.53      
C           71.8        144.11      106.65      
C           72.17       142.68      104.83      
N           73.36       144.84      108.08      
N           72.15       145.31      108.35      
N           71.2        144.97      107.53      
C           71.81       145.75      109.73      
H           71.9        142.09      103.97      
H           74.18       141.9       104.51      
H           72.76448    146.06582   110.1511    
H           71.12       146.6       109.6       
H           71.34968    144.92143   110.26822   
C           73.52       142.51      105.18      
C           73.18       144.1       106.92      
C           74.11       143.26      106.27      
C           67.75       141.96      105.24      
C           67.55       143.3       105.57      
S           69.33       141.7       104.63      
H           68.94       144.95      106.15      
H           66.62       143.78      105.88      
C           68.8        143.96      105.68      
C           69.85       143.3       105.16      
C           63.4        139.87      105.51      
C           64.78       139.81      105.24      
N           63.15       141.25      105.81      
C           64.31       142.05      105.49      
C           65.81       138.81      105.0       
O           65.8        137.58      104.79      
O           64.31       143.27      105.61      
C           68.2        138.75      105.08      
C           61.95       141.87      106.4       
H           61.38648    142.35004   105.59994   
H           61.39       141.24      107.0       
H           62.26       142.55      107.24      
H           68.86       139.12      105.82      
H           68.68011    138.47465   104.14097   
H           67.89       137.74      105.42      
N           67.01       139.58      104.93      
C           65.39       141.11      105.3       
C           66.81       140.92      105.14      
C           60.43       137.37      105.95      
C           61.64       136.64      105.9       
S           60.79       139.04      105.67      
H           63.82       137.1       105.89      
H           61.69       135.62      106.02      
C           62.8        137.46      105.85      
C           62.49       138.78      105.72      
C           56.42       135.67      106.63      
C           56.64       137.02      106.25      
C           57.61       134.92      106.73      
N           57.58       138.85      105.52      
N           56.26       139.01      105.63      
N           55.67       137.97      106.18      
C           55.48       140.19      105.2       
H           57.64       133.89      107.03      
H           59.76       134.92      106.49      
H           56.11311    140.85908   104.61725   
H           54.64       139.92      104.54      
H           55.09027    140.67893   106.09284   
C           58.85       135.56      106.47      
C           57.86       137.59      105.99      
C           59.06       136.87      106.1       
C           53.77       133.54      108.51      
C           53.16       134.71      108.24      
S           55.47       133.73      108.27      
H           53.82       136.58      107.37      
H           52.18       135.04      108.5       
C           53.99       135.53      107.49      
C           55.19       135.05      107.2       
C           51.01       131.66      111.88      
C           51.85       131.52      110.92      
N           50.87       133.01      112.05      
C           51.61       133.77      111.07      
C           52.44       130.49      110.01      
O           52.41       129.24      109.97      
O           51.76       134.98      111.1       
C           53.69       130.58      107.9       
C           49.88       133.87      112.74      
H           50.34436    134.35547   113.59836   
H           49.54       134.68      112.07      
H           49.05       133.22      113.04      
H           54.68       130.94      107.67      
H           52.87408    130.5212    107.17964   
H           54.04       129.54      108.1       
N           53.3        131.17      109.12      
C           52.32       132.72      110.37      
C           53.3        132.53      109.4       
C           49.13       129.1       114.3       
C           49.67       128.42      113.3       
S           49.53       130.79      114.17      
H           50.92       128.84      111.57      
H           49.55       127.4       113.1       
C           50.35       129.29      112.37      
C           50.31       130.64      112.64      
C           46.78       127.85      117.84      
C           47.29       126.92      116.92      
C           47.11       129.12      117.52      
N           48.43       126.13      115.21      
N           47.95       125.22      116.02      
N           47.26       125.6       117.05      
C           48.65       123.96      116.05      
H           46.7        130.01      117.96      
H           47.83       130.54      116.22      
H           48.88521    123.65352   115.03076   
H           49.55       124.04      116.57      
H           47.99623    123.20454   116.48585   
C           47.78       129.49      116.34      
C           48.13       127.28      115.82      
C           48.37       128.65      115.44      
C           44.25       127.06      120.74      
C           45.32       126.23      120.9       
S           44.61       128.26      119.48      
H           47.27       125.91      119.92      
H           45.36       125.5       121.71      
C           46.32       126.44      119.92      
C           46.07       127.43      119.04      
C           41.82       127.11      124.96      
C           41.84       127.36      123.59      
N           43.06       126.58      125.27      
C           43.81       126.37      124.07      
C           41.05       127.84      122.44      
O           39.95       128.29      122.37      
O           44.99       125.95      124.13      
C           41.45       128.06      119.96      
C           43.39       125.73      126.38      
H           42.78968    124.83297   126.22819   
H           43.19       126.23      127.27      
H           44.41       125.48      126.32      
H           42.02       127.57      119.18      
H           41.4572     129.12536   119.72965   
H           40.41       127.83      119.9       
N           41.91       127.72      121.31      
C           43.13       126.97      122.97      
C           43.15       127.33      121.66      
C           39.17       127.72      127.88      
C           38.52       127.92      126.71      
S           40.87       127.37      127.62      
H           39.2        127.82      124.53      
H           37.53       128.32      126.58      
C           39.48       127.76      125.55      
C           40.75       127.35      125.87      
C           38.21       128.88      131.99      
C           37.28       129.13      130.95      
C           39.31       128.27      131.58      
N           36.48       129.04      128.87      
N           35.68       129.72      129.7       
N           36.01       129.73      130.96      
C           34.3        130.18      129.23      
H           40.06       128.04      132.25      
H           40.52       127.42      130.07      
H           34.22972    129.94106   128.16884   
H           33.55       129.65      129.78      
H           34.21741    131.26055   129.347     
C           39.58       127.85      130.24      
C           37.55       128.74      129.57      
C           38.73       128.11      129.16      
C           38.03       128.87      135.86      
C           37.0        129.65      135.46      
S           39.09       128.46      134.51      
H           36.17       130.39      133.53      
H           36.31       130.07      136.15      
C           36.94       129.89      134.02      
C           37.97       129.21      133.38      
C           37.99       129.51      140.6       
C           38.45       128.72      139.56      
N           37.37       130.6       140.02      
C           37.5        130.67      138.6       
C           39.26       127.59      139.24      
O           39.9        126.75      139.78      
O           37.25       131.66      137.88      
C           39.43       126.25      137.07      
C           36.35       131.43      140.67      
H           36.40605    132.50199   140.48082   
H           36.54       131.27      141.79      
H           35.35       131.08      140.58      
H           40.26       126.51      136.34      
H           38.60681    125.64492   136.69007   
H           39.98       125.68      137.74      
N           38.95       127.43      137.8       
C           38.02       129.32      138.31      
C           38.33       128.54      137.24      
C           38.79       129.11      144.53      
C           38.81       127.93      143.85      
S           38.36       130.32      143.36      
H           38.47       127.04      141.99      
H           38.97       127.03      144.42      
C           38.47       128.02      142.53      
C           38.13       129.22      142.0       
C           39.55       130.12      148.82      
C           39.74       128.83      148.31      
C           39.32       131.02      147.75      
N           40.0        127.15      146.73      
N           40.35       126.73      147.98      
N           40.24       127.7       148.95      
C           40.41       125.29      148.36      
H           39.18       132.06      147.98      
H           38.72       131.47      145.73      
H           41.4093     124.87248   148.2368    
H           39.7        124.79      147.6       
H           39.99868    125.11799   149.35465   
C           38.99       130.65      146.43      
C           39.56       128.45      146.93      
C           39.03       129.32      145.94      
H           39.87       95.97       83.55       
H           40.24       130.53      149.55      
