472

C           21.56       48.28       76.89       
C           20.33       48.94       77.13       
S           22.69       48.88       78.11       
H           19.44       50.5        78.43       
H           19.45       48.84       76.51       
C           20.3        49.86       78.19       
C           21.48       49.99       78.78       
C           20.81       45.91       72.7        
C           21.66       46.15       73.76       
N           19.63       46.57       73.02       
C           19.62       47.05       74.32       
C           23.03       45.97       74.27       
O           24.03       45.49       73.84       
O           18.67       47.64       74.81       
C           24.13       46.52       76.48       
C           18.27       46.24       72.64       
H           17.8623     45.4246     73.23749    
H           18.28       45.8        71.64       
H           17.64       47.14       72.53       
H           23.8        46.52       77.53       
H           24.95071    47.20998    76.2839     
H           24.47       45.44       76.37       
N           22.99       46.73       75.57       
C           20.98       46.95       74.8        
C           21.81       47.44       75.81       
C           21.32       44.14       69.11       
C           22.49       44.19       69.78       
S           20.14       44.94       70.11       
H           23.23       44.91       71.72       
H           23.41       43.79       69.34       
C           22.4        44.7        71.11       
C           21.16       45.18       71.48       
C           19.92       42.31       65.28       
C           21.29       42.32       65.66       
C           19.11       43.0        66.15       
N           23.17       42.66       66.88       
N           23.39       41.99       65.72       
N           22.29       41.85       64.91       
C           24.74       41.57       65.34       
H           18.02       43.06       65.95       
H           18.9        44.18       68.01       
H           25.43275    42.19484    65.90371    
H           24.74       40.54       65.7        
H           24.84206    41.68664    64.26108    
C           19.62       43.64       67.37       
C           21.81       42.88       66.89       
C           20.94       43.54       67.82       
C           17.92       41.14       62.15       
C           19.23       41.27       61.76       
S           17.76       41.7        63.8        
H           21.15       41.65       62.67       
H           19.5        41.13       60.73       
C           20.07       41.6        62.8        
C           19.47       41.85       63.98       
C           15.55       40.51       58.06       
C           15.52       40.44       59.4        
N           16.87       40.32       57.59       
C           17.73       40.42       58.79       
C           14.63       40.47       60.58       
O           13.41       40.52       60.78       
O           18.96       40.47       58.64       
C           15.0        40.02       62.94       
C           17.44       39.68       56.39       
H           17.44       38.5943     56.48667    
H           18.41       40.07       56.29       
H           16.81       39.78       55.5        
H           14.9        40.83       63.65       
H           15.59176    39.19849    63.34379    
H           14.05       39.64       62.71       
N           15.49       40.56       61.67       
C           16.87       40.63       59.95       
C           16.8        40.75       61.3        
C           12.48       40.44       55.52       
C           12.07       40.77       56.75       
S           14.17       40.14       55.55       
H           13.07       41.29       58.77       
H           11.04       41.05       57.02       
C           13.12       40.93       57.7        
C           14.37       40.64       57.2        
C           10.52       40.92       51.59       
C           10.12       41.63       52.75       
C           11.46       39.96       51.9        
N           10.18       42.28       54.98       
N           9.34        42.93       54.2        
N           9.22        42.64       52.92       
C           9.17        44.34       54.49       
H           11.98       39.47       51.07       
H           12.86       39.09       53.28       
H           8.71185     44.34727    55.47901    
H           10.14       44.91       54.4        
H           8.56916     44.81508    53.7145     
C           12.08       39.82       53.15       
C           10.7        41.41       54.08       
C           11.8        40.56       54.32       
C           9.3         40.63       47.84       
C           8.94        41.87       48.37       
S           10.06       39.76       49.14       
H           8.97        42.94       50.42       
H           8.32        42.59       47.77       
C           9.2         42.08       49.78       
C           9.94        41.05       50.23       
C           9.44        37.29       44.36       
C           8.78        38.45       44.82       
N           10.56       37.16       45.17       
C           10.55       37.98       46.35       
C           7.76        39.49       44.61       
O           6.87        39.53       43.72       
O           11.43       37.93       47.22       
C           6.65        41.22       46.04       
C           11.72       36.29       45.02       
H           12.2839     36.59364    44.138      
H           12.38       36.33       45.89       
H           11.45       35.23       44.91       
H           6.93        42.22       46.3        
H           6.10454     40.78937    46.87972    
H           5.97        41.37       45.16       
N           7.87        40.45       45.73       
C           9.47        38.92       46.05       
C           8.94        40.12       46.51       
C           8.52        34.61       41.59       
C           7.98        35.82       41.26       
S           9.44        34.82       43.02       
H           7.73        37.8        42.06       
H           7.4         35.9        40.33       
C           8.25        36.86       42.15       
C           9.13        36.5        43.19       
C           8.72        31.04       39.11       
C           9.11        31.02       40.5        
C           8.16        32.25       38.7        
N           9.67        31.82       42.5        
N           9.98        30.5        42.35       
N           9.71        30.01       41.17       
C           10.69       29.59       43.25       
H           7.88        32.33       37.63       
H           7.95        34.32       39.1        
H           11.10468    30.13119    44.10044    
H           10.03       28.76       43.64       
H           11.47181    29.10944    42.66185    
C           8.22        33.4        39.55       
C           9.07        32.17       41.32       
C           8.56        33.39       40.88       
C           9.72        27.89       36.91       
C           8.82        28.65       36.27       
S           10.0        28.6        38.5        
H           7.61        30.42       36.6        
H           8.49        28.44       35.3        
C           8.36        29.76       36.97       
C           8.89        29.9        38.18       
C           11.3        24.74       33.54       
C           11.46       25.39       34.74       
N           10.22       25.36       32.95       
C           9.6         26.29       33.86       
C           12.25       25.31       35.95       
O           13.27       24.65       36.17       
O           8.61        26.88       33.59       
C           12.53       26.69       37.91       
C           9.85        25.52       31.55       
H           10.42688    26.38167    31.21409    
H           8.82        25.69       31.47       
H           10.09       24.67       30.93       
H           12.07       27.03       38.79       
H           13.25023    27.42463    37.54989    
H           13.04       25.77       38.29       
N           11.66       26.27       36.82       
C           10.36       26.22       35.08       
C           10.51       26.76       36.37       
C           13.2        21.74       31.81       
C           13.56       21.83       33.14       
S           11.94       22.95       31.48       
H           12.99       22.85       34.94       
H           14.44       21.26       33.54       
C           12.84       22.77       33.9        
C           11.98       23.54       33.12       
C           15.11       19.47       28.42       
C           13.84       20.14       28.31       
C           15.61       19.6        29.78       
N           12.03       21.28       28.96       
N           12.12       21.13       27.65       
N           13.08       20.26       27.23       
C           11.29       21.75       26.73       
H           16.6        19.17       29.94       
H           15.57       20.37       31.78       
H           10.63675    22.46716    27.22704    
H           11.99       22.21       26.01       
H           10.71245    21.04657    26.13023    
C           14.99       20.28       30.86       
C           13.17       20.76       29.4        
C           13.8        20.92       30.74       
C           17.81       17.75       26.03       
C           16.79       18.27       25.3        
S           17.44       18.05       27.7        
H           14.77       18.97       25.55       
H           16.78       18.08       24.22       
C           15.68       18.76       26.02       
C           15.9        18.78       27.37       
C           21.27       16.69       22.89       
C           20.8        16.64       24.17       
N           20.21       17.03       22.03       
C           19.11       17.37       22.83       
C           21.14       16.35       25.52       
O           22.19       15.92       25.99       
O           18.07       17.67       22.28       
C           19.9        15.96       27.52       
C           19.84       16.35       20.78       
H           19.25307    15.45528    20.98757    
H           20.73       15.87       20.38       
H           19.42       17.03       20.04       
H           18.89       15.49       27.56       
H           20.19608    16.49439    28.42269    
H           20.58       15.21       27.51       
N           20.0        16.69       26.28       
C           19.5        17.13       24.21       
C           19.06       17.22       25.5        
C           24.72       16.37       21.15       
C           24.86       15.92       22.38       
S           23.17       17.08       20.89       
H           23.54       15.6        24.14       
H           25.78       15.58       22.81       
C           23.67       16.04       23.14       
C           22.63       16.49       22.45       
C           28.1        17.36       18.53       
C           26.84       16.84       17.99       
C           28.14       17.49       19.89       
N           24.71       16.1        18.06       
N           25.21       16.12       16.83       
N           26.43       16.51       16.69       
C           24.66       15.26       15.79       
H           29.04       17.81       20.4        
H           27.18       17.38       21.74       
H           23.58528    15.37023    15.93467    
H           25.03       15.75       14.9        
H           24.97834    14.22717    15.93148    
C           27.0        17.13       20.74       
C           25.68       16.54       18.87       
C           25.81       16.57       20.26       
C           31.74       17.65       17.01       
C           30.86       17.3        16.02       
S           30.81       17.63       18.52       
H           28.7        16.8        15.74       
H           31.11       17.07       15.01       
C           29.48       17.17       16.45       
C           29.28       17.41       17.71       
C           36.06       16.38       15.52       
C           35.29       16.93       16.52       
N           35.26       16.08       14.44       
C           33.91       16.5        14.7        
C           35.37       17.5        17.87       
O           36.31       17.57       18.63       
O           33.09       16.41       13.88       
C           33.83       19.07       18.99       
C           35.58       15.74       13.1        
H           35.58728    16.59959    12.42981    
H           34.9        14.95       12.7        
H           36.55       15.22       13.05       
H           32.91       18.93       19.57       
H           34.08339    20.04838    18.58176    
H           34.51       18.85       19.86       
N           34.02       17.98       18.09       
C           33.93       17.1        16.06       
C           33.15       17.61       17.07       
C           39.55       15.04       16.9        
C           39.51       15.04       15.54       
S           37.97       15.38       17.4        
H           38.32       15.88       13.92       
H           40.28       14.52       14.97       
C           38.36       15.68       14.95       
C           37.41       15.94       15.83       
C           42.31       13.31       19.81       
C           42.55       13.3        18.41       
C           41.17       13.99       20.14       
N           42.28       13.72       16.27       
N           43.52       13.19       16.59       
N           43.74       12.93       17.84       
C           44.51       12.72       15.55       
H           40.92       13.99       21.21       
H           39.44       14.99       19.56       
H           44.03578    12.87343    14.58063    
H           45.36       13.35       15.71       
H           44.89805    11.72517    15.76872    
C           40.32       14.54       19.19       
C           41.67       13.82       17.47       
C           40.5        14.48       17.83       
C           45.15       11.82       22.27       
C           44.21       12.45       23.01       
S           44.66       11.87       20.6        
H           42.26       13.55       22.69       
H           44.32       12.52       24.09       
C           43.1        12.94       22.26       
C           43.21       12.84       20.88       
C           48.98       9.08        22.65       
C           48.35       10.2        23.13       
N           48.29       8.47        21.61       
C           47.04       9.21        21.46       
C           48.38       11.29       24.04       
O           49.23       11.65       24.84       
O           46.2        8.98        20.57       
C           47.26       13.47       24.08       
C           48.5        7.31        20.82       
H           48.15474    6.45743     21.40482    
H           47.83       7.27        19.95       
H           49.58       7.24        20.52       
H           46.34       13.74       24.68       
H           47.43871    14.11037    23.21624    
H           48.04       13.53       24.81       
N           47.23       12.08       23.72       
C           47.09       10.3        22.41       
C           46.4        11.43       22.81       
C           52.75       7.96        23.2        
C           52.31       8.67        24.29       
S           51.45       7.93        22.08       
H           50.59       9.78        24.98       
H           52.9        8.76        25.2        
C           51.03       9.17        24.18       
C           50.34       8.65        23.1        
C           56.82       6.4         22.88       
C           55.72       5.6         22.43       
C           56.5        7.61        23.44       
N           53.56       5.18        21.86       
N           54.38       4.23        21.56       
N           55.6        4.35        21.95       
C           53.73       2.94        21.21       
H           57.32       8.21        23.96       
H           55.04       9.07        23.91       
H           52.73161    3.14945     20.826      
H           54.45       2.41        20.58       
H           53.60519    2.3506      22.11837    
C           55.15       8.07        23.45       
C           54.39       6.14        22.38       
C           54.01       7.39        23.01       
C           59.64       4.1         24.12       
C           60.28       5.06        23.36       
S           57.94       4.41        24.15       
H           59.72       6.97        22.42       
H           61.32       5.09        23.14       
C           59.4        6.15        22.93       
C           58.11       5.78        23.11       
C           63.26       1.28        25.27       
C           61.9        1.47        25.22       
N           63.85       2.41        24.77       
C           62.92       3.35        24.3        
C           60.62       0.89        25.73       
O           60.36       -0.17       26.2        
O           63.3        4.38        23.9        
C           58.32       1.44        25.42       
C           65.23       2.8         24.74       
H           65.62771    2.68637     23.73153    
H           65.2        3.88        24.91       
H           65.85       2.33        25.5        
H           57.76       1.57        24.5        
H           57.8699     1.67912     26.3835     
H           58.37       0.34        25.33       
N           59.66       1.87        25.38       
C           61.62       2.74        24.6        
C           60.26       2.92        24.66       
C           65.33       -1.9        26.66       
C           64.09       -1.82       27.23       
S           65.5        -0.48       25.62       
H           62.35       -0.4        27.26       
H           63.74       -2.49       27.97       
C           63.3        -0.64       26.84       
C           63.93       0.19        25.99       
C           68.06       -5.31       26.24       
C           67.05       -5.25       27.27       
C           68.18       -4.14       25.6        
N           65.34       -4.32       28.41       
N           65.6        -5.54       28.87       
N           66.66       -6.11       28.28       
C           64.75       -6.26       29.78       
H           68.98       -4.09       24.85       
H           67.6        -2.16       25.16       
H           64.24412    -5.48673    30.35814    
H           64.13       -6.88       29.16       
H           65.27937    -6.93375    30.45375    
C           67.44       -2.98       25.82       
C           66.22       -4.1        27.41       
C           66.34       -2.93       26.6        
C           69.8        -8.87       26.02       
C           70.49       -7.98       25.22       
S           68.45       -7.98       26.8        
H           70.17       -5.92       24.48       
H           71.26       -8.33       24.6        
C           69.92       -6.67       25.19       
C           68.91       -6.49       26.04       
C           71.45       -13.23      24.8        
C           70.79       -12.42      25.72       
N           71.96       -12.47      23.76       
C           71.42       -11.12      23.94       
C           70.1        -12.43      27.0        
O           69.64       -13.32      27.77       
O           71.7        -10.18      23.22       
C           68.83       -10.88      28.31       
C           73.08       -12.59      22.86       
H           73.92761    -12.04867   23.28025    
H           72.87       -12.21      21.79       
H           73.42       -13.67      22.8        
H           68.05       -10.13      28.15       
H           69.47572    -10.65509   29.15886    
H           68.2        -11.76      28.52       
N           69.46       -11.16      27.03       
C           70.69       -11.12      25.23       
C           69.96       -10.31      26.08       
C           71.34       -17.1       24.14       
C           70.8        -16.85      25.36       
S           72.13       -15.64      23.62       
H           70.21       -15.12      26.58       
H           70.3        -17.56      25.95       
C           70.82       -15.45      25.77       
C           71.51       -14.69      24.92       
C           70.9        -20.76      21.76       
C           71.67       -19.65      21.32       
C           70.4        -20.61      23.03       
N           72.56       -17.58      21.42       
N           72.87       -18.2       20.31       
N           72.38       -19.45      20.18       
C           73.4        -17.43      19.24       
H           69.92       -21.51      23.46       
H           70.13       -19.45      24.83       
H           73.38603    -16.38229   19.54034    
H           74.42       -17.74      19.07       
H           72.79377    -17.65298   18.36201    
C           70.73       -19.53      23.91       
C           71.85       -18.49      22.15       
C           71.38       -18.37      23.44       
C           71.77       -24.02      19.8        
C           70.44       -24.12      20.19       
S           72.41       -22.45      20.27       
H           69.07       -23.0       21.6        
H           69.86       -25.0       20.05       
C           70.06       -23.04      21.05       
C           70.95       -21.98      20.97       
C           72.08       -27.91      16.85       
C           72.73       -26.94      17.63       
N           70.72       -27.83      17.05       
C           70.47       -26.87      18.07       
C           74.02       -26.34      17.96       
O           75.25       -26.58      17.66       
O           69.37       -26.5       18.37       
C           74.81       -24.56      19.43       
C           69.59       -28.7       16.76       
H           69.3442     -29.34611   17.60275    
H           69.71       -29.24      15.86       
H           68.71       -28.09      16.53       
H           74.72       -24.34      20.51       
H           75.15411    -23.71405   18.83497    
H           75.7        -25.17      19.42       
N           73.71       -25.31      18.91       
C           71.75       -26.21      18.38       
C           72.37       -25.09      18.97       
C           73.36       -30.3       13.82       
C           74.39       -29.53      14.27       
S           71.95       -29.89      14.8        
H           74.83       -28.21      15.89       
H           75.4        -29.5       13.82       
C           74.04       -28.77      15.41       
C           72.72       -28.75      15.78       
C           72.93       -32.24      9.96        
C           72.07       -32.55      11.04       
C           73.91       -31.31      10.18       
N           71.33       -32.4       13.1        
N           70.64       -33.29      12.34       
N           71.02       -33.42      11.04       
C           69.36       -33.92      12.72       
H           74.56       -30.99      9.39        
H           74.79       -29.94      11.51       
H           69.39677    -34.99375   12.53614    
H           68.54       -33.51      12.14       
H           69.20165    -33.71127   13.77804    
C           74.08       -30.69      11.47       
C           72.34       -32.02      12.34       
C           73.32       -31.0       12.62       
H           21.77       50.91       79.27       
H           72.64       -32.73      8.99        
