472

C           52.09       82.59       72.48       
C           52.73       83.65       72.99       
S           52.84       81.16       73.19       
H           54.26       84.13       74.37       
H           52.51       84.63       72.66       
C           53.64       83.36       74.03       
C           53.67       82.04       74.38       
C           50.41       84.45       68.25       
C           50.34       83.47       69.26       
N           51.28       85.4        68.8        
C           51.85       85.03       70.08       
C           49.78       82.14       69.56       
O           48.99       81.42       68.98       
O           52.67       85.68       70.65       
C           50.0        80.35       71.27       
C           51.23       86.7        68.43       
H           50.91272    87.35572    69.24084    
H           50.48       86.86       67.61       
H           52.25       87.02       68.13       
H           49.87       80.3        72.37       
H           50.67904    79.57604    70.91223    
H           48.95       80.32       70.91       
N           50.37       81.75       70.84       
C           51.2        83.75       70.4        
C           51.28       82.68       71.27       
C           49.27       84.63       64.35       
C           48.51       83.65       65.03       
S           50.41       85.33       65.49       
H           48.41       82.75       67.03       
H           47.76       83.02       64.5        
C           48.84       83.48       66.4        
C           49.78       84.37       66.86       
C           49.04       85.8        60.06       
C           48.35       84.71       60.58       
C           49.77       86.45       61.03       
N           47.64       83.28       62.13       
N           47.1        83.08       60.94       
N           47.6        83.83       60.0        
C           46.15       82.05       60.66       
H           50.39       87.28       60.77       
H           50.53       86.79       62.94       
H           45.75753    81.64351    61.59211    
H           45.37       82.56       60.03       
H           46.51312    81.24965    60.01527    
C           49.82       86.11       62.39       
C           48.44       84.36       61.97       
C           49.19       85.01       62.95       
C           49.17       87.5        56.42       
C           49.2        86.15       56.35       
S           48.96       87.87       58.16       
H           49.22       84.37       57.58       
H           49.26       85.65       55.42       
C           49.16       85.45       57.55       
C           49.0        86.25       58.66       
C           48.84       89.09       51.94       
C           48.95       89.4        53.3        
N           48.8        87.73       51.89       
C           48.58       87.13       53.14       
C           49.08       90.49       54.19       
O           49.3        91.69       54.0        
O           48.5        85.94       53.26       
C           49.14       90.77       56.65       
C           48.82       86.84       50.75       
H           47.80732    86.493      50.54463    
H           49.46       85.97       50.95       
H           49.06       87.34       49.78       
H           49.81       90.39       57.42       
H           48.16951    91.07912    57.0382     
H           49.64       91.63       56.31       
N           49.12       89.89       55.48       
C           48.75       88.22       54.06       
C           49.01       88.48       55.4        
C           49.78       91.7        49.22       
C           48.84       90.89       48.74       
S           50.21       91.26       50.82       
H           47.46       89.42       49.72       
H           48.36       91.03       47.77       
C           48.4        89.95       49.74       
C           49.08       89.99       50.91       
C           51.52       95.36       47.5        
C           50.23       94.93       47.18       
C           52.19       94.4        48.23       
N           48.43       93.58       47.18       
N           48.27       94.66       46.42       
N           49.26       95.53       46.42       
C           46.89       95.09       46.19       
H           53.21       94.66       48.56       
H           52.25       92.44       49.35       
H           46.41366    94.16575    45.86296    
H           46.56       95.43       47.12       
H           46.85546    95.84993    45.40935    
C           51.62       93.18       48.82       
C           49.69       93.68       47.67       
C           50.32       92.9        48.61       
C           52.76       99.06       46.56       
C           53.82       98.28       46.86       
S           51.31       98.05       46.69       
H           54.23       96.3        47.63       
H           54.78       98.73       46.89       
C           53.48       96.91       47.25       
C           52.15       96.64       47.2        
C           54.44       103.58      46.46       
C           53.38       102.73      46.32       
N           55.59       102.79      46.48       
C           55.27       101.38      46.57       
C           51.94       102.69      46.16       
O           51.13       103.55      45.95       
O           56.06       100.47      46.56       
C           50.43       100.96      45.43       
C           56.92       103.14      46.01       
H           56.94834    103.5226    44.98975    
H           57.38       103.93      46.69       
H           57.56       102.25      45.96       
H           49.81       100.37      46.16       
H           50.53057    100.40688   44.49617    
H           49.87       101.88      45.32       
N           51.66       101.29      46.01       
C           53.79       101.36      46.41       
C           52.76       100.49      46.32       
C           55.08       107.44      47.1        
C           53.77       107.23      46.79       
S           55.9        105.95      47.08       
H           52.42       105.54      46.3        
H           53.07       108.06      46.85       
C           53.43       105.87      46.52       
C           54.5        105.04      46.59       
C           57.24       111.04      48.57       
C           57.87       110.03      47.8        
C           55.93       110.73      48.82       
N           58.12       108.05      46.66       
N           59.18       108.77      46.8        
N           59.11       109.99      47.35       
C           60.49       108.15      46.88       
H           55.39       111.43      49.39       
H           54.21       109.49      48.56       
H           60.35389    107.07541   46.75821    
H           61.0        108.64      46.05       
H           60.93162    108.31383   47.86297    
C           55.27       109.55      48.35       
C           57.2        108.83      47.3        
C           55.82       108.59      47.54       
C           59.43       112.79      51.24       
C           58.51       113.69      50.87       
S           59.14       111.34      50.37       
H           56.77       113.83      49.43       
H           58.46       114.63      51.46       
C           57.6        113.27      49.86       
C           58.0        112.1       49.33       
C           62.58       115.13      54.08       
C           62.1        114.03      53.58       
N           61.84       116.21      53.6        
C           60.75       115.63      52.73       
C           62.35       112.57      53.56       
O           63.18       111.91      54.06       
O           59.98       116.35      52.06       
C           60.88       110.59      53.01       
C           62.06       117.69      53.75       
H           62.3138     118.1976    52.8194     
H           62.92       117.99      54.38       
H           61.21       118.19      54.23       
H           60.51       110.06      52.22       
H           60.19143    110.52407   53.8524     
H           61.81       110.06      53.27       
N           61.2        112.0       52.84       
C           61.0        114.2       52.72       
C           60.53       112.99      52.23       
C           66.02       115.42      56.08       
C           65.45       114.21      56.24       
S           64.96       116.4       55.15       
H           63.59       113.29      55.8        
H           65.89       113.36      56.77       
C           64.14       114.18      55.73       
C           63.69       115.22      55.05       
C           70.12       116.44      57.35       
C           69.25       117.39      56.79       
C           69.56       115.16      57.47       
N           67.42       118.24      55.77       
N           68.36       119.15      55.77       
N           69.42       118.72      56.5        
C           68.52       120.13      54.75       
H           70.14       114.32      57.81       
H           67.86       113.9       57.3        
H           67.51157    120.48965   54.54549    
H           69.12       121.0       55.14       
H           68.96032    119.68968   53.85538    
C           68.18       114.95      57.11       
C           67.94       117.09      56.34       
C           67.35       115.85      56.47       
C           73.85       116.61      58.65       
C           73.45       117.91      58.33       
S           72.57       115.52      58.44       
H           71.59       118.87      57.55       
H           74.08       118.74      58.35       
C           72.13       117.93      57.81       
C           71.46       116.71      57.83       
C           77.21       113.83      60.66       
C           76.93       114.99      59.96       
N           76.09       113.04      60.66       
C           74.95       113.71      60.07       
C           77.44       116.27      59.55       
O           78.51       116.84      59.81       
O           73.79       113.27      60.13       
C           76.7        117.72      57.68       
C           75.96       111.6       60.94       
H           75.56242    111.04044   60.09329    
H           75.28       111.54      61.83       
H           76.9        111.14      61.2        
H           76.23       118.64      57.53       
H           76.63704    117.16735   56.7426     
H           77.76       117.9       57.84       
N           76.34       116.95      58.87       
C           75.55       114.96      59.55       
C           75.18       116.2       59.0        
C           80.44       112.69      62.68       
C           80.71       113.79      61.96       
S           78.79       112.24      62.37       
H           79.75       114.99      60.38       
H           81.6        114.37      62.17       
C           79.64       114.15      61.11       
C           78.51       113.48      61.21       
C           81.88       110.98      66.4        
C           81.65       110.18      65.29       
C           81.92       112.34      66.17       
N           81.05       109.77      63.18       
N           81.28       108.66      63.88       
N           81.55       108.84      65.18       
C           80.85       107.37      63.35       
H           82.07       113.15      66.89       
H           81.51       113.9       64.81       
H           81.39213    107.09893   62.44407    
H           81.22       106.67      64.15       
H           79.76309    107.34195   63.27286    
C           81.55       112.82      64.86       
C           81.26       110.75      64.05       
C           81.13       112.13      63.81       
C           82.59       110.53      70.21       
C           82.55       109.28      69.67       
S           82.41       111.75      68.98       
H           82.35       108.31      67.7        
H           82.72       108.38      70.32       
C           82.4        109.26      68.27       
C           82.23       110.51      67.75       
C           83.21       113.56      73.89       
C           83.5        112.35      73.31       
N           82.17       114.09      73.14       
C           81.86       113.24      72.0        
C           84.37       111.2       73.47       
O           85.31       111.02      74.28       
O           80.94       113.53      71.22       
C           84.81       109.24      72.02       
C           80.96       114.7       73.72       
H           80.4126     113.95859   74.30204    
H           80.32       115.1       72.92       
H           81.22       115.52      74.33       
H           84.75       109.01      70.95       
H           84.62304    108.3606    72.63628    
H           85.82       109.6       72.31       
N           83.99       110.38      72.31       
C           82.76       112.08      72.11       
C           83.02       110.92      71.54       
C           83.98       115.01      77.57       
C           83.87       116.0       76.57       
S           83.97       113.49      76.64       
H           83.69       116.13      74.32       
H           83.97       117.04      76.79       
C           83.65       115.53      75.22       
C           83.68       114.17      75.06       
C           84.74       115.32      81.95       
C           84.62       116.48      81.12       
C           84.57       114.1       81.28       
N           84.42       117.65      79.3        
N           84.42       118.45      80.35       
N           84.44       117.82      81.48       
C           84.77       119.83      80.15       
H           84.57       113.15      81.76       
H           84.22       113.07      79.41       
H           84.6131     120.13667   79.11587    
H           84.0        120.37      80.72       
H           85.69593    120.1176    80.64804    
C           84.35       114.09      79.86       
C           84.46       116.39      79.71       
C           84.33       115.15      78.98       
C           84.08       115.72      85.9        
C           85.17       114.93      85.76       
S           83.46       116.21      84.36       
H           86.44       114.14      84.03       
H           85.79       114.53      86.54       
C           85.51       114.72      84.31       
C           84.77       115.39      83.43       
C           84.23       116.98      90.52       
C           83.55       116.84      89.38       
N           85.54       116.62      90.27       
C           85.66       116.14      88.93       
C           82.23       117.15      88.83       
O           81.16       117.54      89.23       
O           86.78       115.87      88.47       
C           81.65       117.65      86.49       
C           86.78       116.42      91.06       
H           87.18868    117.41251   91.24974    
H           86.64       115.88      92.0        
H           87.57       115.87      90.59       
H           81.35       117.01      85.65       
H           82.1589     118.55312   86.15312    
H           80.63       117.76      86.99       
N           82.39       116.86      87.4        
C           84.39       116.33      88.33       
C           83.66       116.32      87.13       
C           82.11       116.59      93.75       
C           83.16       117.27      94.06       
S           82.12       116.23      92.08       
H           85.1        117.9       93.0        
H           83.32       117.75      94.97       
C           84.13       117.43      92.93       
C           83.59       116.99      91.74       
C           78.66       115.27      96.28       
C           79.67       116.27      96.63       
C           78.88       114.91      94.98       
N           81.36       117.67      96.52       
N           80.83       117.63      97.73       
N           79.83       116.81      97.83       
C           81.33       118.4       98.86       
H           78.35       114.1       94.53       
H           80.07       114.95      93.08       
H           82.19594    118.95617   98.50095    
H           80.49       118.99      99.22       
H           81.50641    117.7367    99.70677    
C           79.97       115.33      94.14       
C           80.69       116.78      95.85       
C           80.91       116.3       94.53       
C           75.9        113.9       98.84       
C           75.66       113.35      97.66       
S           77.25       115.04      98.76       
H           76.62       113.39      95.61       
H           74.81       112.71      97.46       
C           76.62       113.73      96.63       
C           77.54       114.66      97.06       
C           71.58       113.41      100.79      
C           72.96       113.46      100.98      
N           71.33       113.6       99.45       
C           72.57       113.72      98.75       
C           73.97       113.51      102.07      
O           73.87       113.41      103.28      
O           72.68       113.95      97.55       
C           76.35       113.87      102.03      
C           70.12       113.15      98.62       
H           69.58183    114.01824   98.2397     
H           70.41       112.52      97.78       
H           69.43       112.56      99.29       
H           76.85       114.75      101.67      
H           77.06078    113.04663   102.10037   
H           76.09       114.11      103.08      
N           75.19       113.66      101.25      
C           73.62       113.63      99.74       
C           74.97       113.79      99.88       
C           69.27       111.8       103.48      
C           68.53       112.67      102.72      
S           70.94       111.81      102.96      
H           68.91       114.03      100.96      
H           67.42       112.81      102.75      
C           69.3        113.31      101.7       
C           70.6        112.99      101.73      
C           68.3        108.78      106.46      
C           67.29       109.43      105.7       
C           69.5        109.42      106.37      
N           66.31       110.91      104.27      
N           65.44       110.16      104.92      
N           65.95       109.33      105.8       
C           63.99       110.36      104.76      
H           70.37       109.13      107.02      
H           70.74       110.86      105.41      
H           63.82723    111.12947   104.00533   
H           63.49       109.39      104.4       
H           63.52843    110.56593   105.72574   
C           69.75       110.48      105.4       
C           67.53       110.42      104.72      
C           68.82       110.84      104.44      
C           67.24       106.06      109.1       
C           68.53       106.06      109.02      
S           66.56       107.16      107.98      
H           70.16       107.09      107.94      
H           69.16       105.33      109.42      
C           69.1        107.01      108.1       
C           68.12       107.68      107.39      
C           66.56       102.1       111.78      
C           66.08       103.34      111.38      
N           67.69       101.75      111.05      
C           68.01       102.99      110.33      
C           65.02       104.24      111.61      
O           64.14       104.37      112.42      
O           68.98       102.96      109.56      
C           64.15       106.16      110.33      
C           68.42       100.51      110.73      
H           69.38897    100.53137   111.22874   
H           68.37       100.41      109.69      
H           67.79       99.63       110.93      
H           63.88       106.05      109.33      
H           64.32776    107.19103   110.63575   
H           63.34       105.82      110.96      
N           65.31       105.35      110.71      
C           66.93       103.9       110.44      
C           66.47       105.13      109.95      
C           65.02       99.26       114.24      
C           64.24       100.35      114.17      
S           66.51       99.6        113.22      
H           64.22       102.32      113.3       
H           63.35       100.55      114.73      
C           64.76       101.39      113.36      
C           65.92       101.17      112.7       
C           64.25       95.69       116.64      
C           65.51       95.84       116.05      
C           63.44       96.73       116.53      
N           67.07       96.91       114.89      
N           67.46       95.78       115.36      
N           66.55       95.02       116.0       
C           68.77       95.32       114.9       
H           62.56       96.77       117.09      
H           62.86       98.66       115.65      
H           69.39267    96.20448    114.76556   
H           69.16       94.61       115.62      
H           68.63246    94.84223    113.92999   
C           63.66       97.88       115.76      
C           65.83       97.04       115.32      
C           64.85       98.08       115.11      
C           62.16       92.7        118.14      
C           63.45       92.24       117.97      
S           62.1        94.37       117.71      
H           65.39       93.14       117.13      
H           63.72       91.18       118.14      
C           64.38       93.21       117.43      
C           63.81       94.44       117.3       
C           57.75       92.2        120.03      
C           59.07       91.66       119.9       
N           57.61       93.16       118.96      
C           58.87       93.33       118.32      
C           59.98       90.72       120.5       
O           59.87       89.96       121.49      
O           58.98       94.12       117.36      
C           62.4        90.09       120.2       
C           56.4        93.38       118.16      
H           56.13122    94.43332    118.23991   
H           55.67       92.55       118.28      
H           56.67       93.17       117.09      
H           63.32       90.67       120.27      
H           62.37848    89.07138    119.81264   
H           62.19       89.86       121.25      
N           61.25       90.88       119.81      
C           59.79       92.38       118.95      
C           61.1        91.98       118.88      
C           55.15       90.22       122.23      
C           54.59       91.36       121.76      
S           56.78       90.06       121.65      
H           55.23       93.04       120.38      
H           53.52       91.55       121.86      
C           55.53       92.18       121.01      
C           56.74       91.59       120.86      
C           53.6        86.87       124.69      
C           52.71       87.76       124.01      
C           54.9        87.16       124.53      
N           52.11       89.38       122.56      
N           51.1        88.73       123.17      
N           51.37       87.73       123.95      
C           49.7        88.88       122.65      
H           55.67       86.54       124.96      
H           56.47       88.4        123.94      
H           49.43392    89.93692    122.66478   
H           49.01       88.2        123.15      
H           49.69289    88.48872    121.63267   
C           55.36       88.26       123.7       
C           53.23       88.85       123.13      
C           54.55       89.09       122.92      
H           53.81       81.73       75.41       
H           53.32       85.79       124.54      
