472

C           43.32       70.21       7.67        
C           44.34       70.72       6.87        
S           43.78       70.32       9.31        
H           46.29       71.58       7.18        
H           44.38       70.71       5.76        
C           45.47       71.12       7.66        
C           45.27       71.1        8.99        
C           40.79       67.49       4.53        
C           40.86       68.18       5.73        
N           42.05       67.61       3.99        
C           42.99       68.34       4.78        
C           40.03       68.58       6.89        
O           38.92       68.4        7.29        
O           44.15       68.58       4.4         
C           40.37       70.05       8.71        
C           42.42       67.35       2.61        
H           42.35053    68.28092    2.04728     
H           41.79       66.67       2.09        
H           43.48       66.95       2.51        
H           40.86       71.06       8.73        
H           40.4834     69.55388    9.6739      
H           39.4        70.27       8.44        
N           40.99       69.35       7.66        
C           42.21       68.68       5.94        
C           42.29       69.35       7.17        
C           37.71       65.96       2.47        
C           37.34       66.38       3.73        
S           39.46       66.28       2.36        
H           38.15       67.03       5.64        
H           36.34       66.25       4.13        
C           38.35       66.73       4.58        
C           39.58       66.8        4.02        
C           34.99       64.88       -0.87       
C           36.43       64.78       -0.95       
C           34.59       65.49       0.25        
N           38.59       65.07       -0.46       
N           38.43       64.53       -1.61       
N           37.15       64.46       -2.01       
C           39.58       64.41       -2.54       
H           33.52       65.75       0.39        
H           35.04       66.11       2.24        
H           40.43882    65.02835    -2.27892    
H           39.93       63.38       -2.52       
H           39.22504    64.58748    -3.55519    
C           35.58       65.7        1.34        
C           37.37       65.24       0.05        
C           36.92       65.6        1.32        
C           31.92       63.75       -3.19       
C           33.08       63.5        -3.86       
S           32.34       64.61       -1.76       
H           35.26       63.66       -3.52       
H           33.12       63.0        -4.82       
C           34.26       63.85       -3.15       
C           34.06       64.51       -1.98       
C           28.55       63.6        -6.73       
C           28.86       63.63       -5.4        
N           29.71       63.7        -7.43       
C           30.84       63.8        -6.55       
C           28.28       63.49       -4.12       
O           27.15       63.43       -3.7        
O           32.02       63.91       -6.99       
C           29.1        63.96       -1.81       
C           29.84       64.37       -8.71       
H           30.1047     65.41449    -8.54546    
H           28.96       64.44       -9.3        
H           30.55       63.9        -9.33       
H           29.84       64.65       -1.48       
H           29.0349     63.0341     -1.23854    
H           28.15       64.4        -1.84       
N           29.37       63.71       -3.22       
C           30.28       63.76       -5.19       
C           30.6        63.72       -3.87       
C           25.17       62.97       -8.69       
C           24.9        63.35       -7.43       
S           26.88       62.93       -8.84       
H           25.82       63.91       -5.61       
H           23.85       63.36       -7.05       
C           25.97       63.68       -6.63       
C           27.2        63.58       -7.26       
C           22.25       61.29       -11.49      
C           23.57       61.7        -11.96      
C           22.02       61.45       -10.19      
N           25.59       62.52       -11.82      
N           25.3        62.05       -13.01      
N           24.09       61.69       -13.19      
C           26.12       62.33       -14.17      
H           21.01       61.24       -9.8        
H           22.63       62.08       -8.22       
H           27.12305    62.63527    -13.87199   
H           26.16       61.42       -14.78      
H           25.63162    63.15594    -14.68711   
C           22.96       61.95       -9.3        
C           24.49       62.29       -11.06      
C           24.2        62.45       -9.69       
C           19.27       60.51       -13.74      
C           20.34       59.83       -14.27      
S           19.68       61.31       -12.25      
H           22.51       59.6        -13.86      
H           20.22       59.25       -15.17      
C           21.57       60.05       -13.55      
C           21.32       60.76       -12.39      
C           14.9        62.36       -14.06      
C           16.11       62.0        -14.61      
N           15.03       62.0        -12.77      
C           16.25       61.43       -12.43      
C           16.75       61.95       -15.89      
O           16.49       62.42       -16.98      
O           16.62       61.13       -11.26      
C           18.85       61.17       -16.87      
C           13.9        61.66       -11.9       
H           13.46924    60.71644    -12.23503   
H           14.31       61.66       -10.89      
H           13.1        62.43       -11.91      
H           19.49       60.24       -16.92      
H           19.46711    62.06374    -16.96221   
H           18.22       61.02       -17.76      
N           18.03       61.3        -15.69      
C           16.95       61.34       -13.71      
C           18.07       60.9        -14.36      
C           11.81       64.05       -15.62      
C           12.44       63.29       -16.58      
S           12.67       63.91       -14.06      
H           14.2        62.04       -16.84      
H           12.06       63.38       -17.54      
C           13.55       62.56       -16.12      
C           13.75       62.75       -14.76      
C           8.86        67.05       -16.66      
C           8.98        66.6        -15.32      
C           9.78        66.66       -17.58      
N           9.61        65.16       -13.68      
N           8.74        66.05       -13.3       
N           8.32        66.87       -14.17      
C           8.36        66.19       -11.9       
H           9.74        67.04       -18.6       
H           11.36       65.25       -17.96      
H           8.72329     65.34944    -11.30876   
H           8.54        67.19       -11.5       
H           7.27406     66.2487     -11.82663   
C           10.75       65.7        -17.17      
C           9.94        65.58       -14.96      
C           10.82       65.1        -15.94      
C           5.46        68.74       -17.67      
C           6.4         69.16       -18.55      
S           6.24        67.93       -16.4       
H           8.55        68.83       -18.89      
H           6.16        69.69       -19.42      
C           7.68        68.68       -18.25      
C           7.77        68.0        -17.09      
C           1.03        68.44       -16.22      
C           1.93        69.21       -16.79      
N           1.59        67.23       -15.81      
C           2.93        67.19       -16.23      
C           2.2         70.54       -17.39      
O           1.42        71.46       -17.65      
O           3.62        66.17       -16.2       
C           4.27        71.65       -18.3       
C           1.07        66.36       -14.71      
H           1.85786     66.21228    -13.97138   
H           0.78        65.38       -15.08      
H           0.23        66.89       -14.17      
H           4.84        71.37       -19.23      
H           4.82054     72.11362    -17.48143   
H           3.52        72.4        -18.48      
N           3.55        70.45       -17.91      
C           3.12        68.46       -16.93      
C           4.06        69.17       -17.66      
C           -2.73       69.25       -15.2       
C           -2.06       70.42       -15.39      
S           -1.71       67.93       -15.56      
H           0.09        70.94       -15.65      
H           -2.51       71.33       -15.36      
C           -0.7        70.19       -15.71      
C           -0.3        68.91       -15.78      
C           -7.13       68.79       -14.95      
C           -6.24       67.7        -15.04      
C           -6.48       70.02       -14.83      
N           -4.3        66.62       -15.04      
N           -5.31       65.78       -15.11      
N           -6.51       66.37       -15.13      
C           -5.06       64.35       -15.09      
H           -7.08       70.88       -14.69      
H           -4.7        71.12       -14.58      
H           -3.98693    64.17234    -15.01894   
H           -5.55       63.9        -14.24      
H           -5.411      63.8629     -15.99974   
C           -5.03       70.15       -14.83      
C           -4.83       67.88       -15.13      
C           -4.15       69.09       -14.94      
C           -10.9       69.18       -15.86      
C           -10.75      67.92       -15.38      
S           -9.4        70.06       -15.67      
H           -9.03       66.63       -14.71      
H           -11.43      67.08       -15.54      
C           -9.4        67.64       -15.04      
C           -8.53       68.69       -15.1       
C           -15.66      69.78       -15.97      
C           -14.46      70.3        -16.25      
N           -15.43      68.57       -15.25      
C           -14.05      68.29       -15.15      
C           -13.75      71.35       -17.02      
O           -14.14      72.36       -17.61      
O           -13.68      67.25       -14.62      
C           -11.43      71.61       -17.76      
C           -16.27      67.86       -14.29      
H           -16.41892   68.38122    -13.34435   
H           -15.99      66.76       -14.08      
H           -17.25      67.74       -14.7       
H           -10.53      71.03       -17.9       
H           -11.12066   72.61903    -17.48749   
H           -11.94      71.58       -18.73      
N           -12.32      70.98       -16.85      
C           -13.39      69.41       -15.79      
C           -12.13      69.88       -16.14      
C           -19.39      71.25       -16.27      
C           -18.52      72.22       -16.1       
S           -18.55      69.75       -16.1       
H           -16.32      72.55       -16.19      
H           -18.9       73.2        -16.14      
C           -17.17      71.88       -16.13      
C           -16.93      70.51       -16.01      
C           -23.7       71.24       -15.69      
C           -22.91      72.37       -15.54      
C           -22.98      70.08       -16.04      
N           -21.09      73.55       -15.22      
N           -22.16      74.29       -14.85      
N           -23.31      73.59       -15.0       
C           -21.93      75.18       -13.75      
H           -23.4       69.13       -16.21      
H           -21.17      69.06       -16.47      
H           -20.9549    75.63322    -13.92854   
H           -22.77      75.91       -13.69      
H           -21.83603   74.62341    -12.81754   
C           -21.59      70.06       -16.31      
C           -21.5       72.35       -15.7       
C           -20.84      71.2        -16.13      
C           -27.65      70.59       -15.53      
C           -27.35      71.86       -15.14      
S           -26.19      69.81       -15.87      
H           -25.59      73.17       -14.95      
H           -28.13      72.59       -14.92      
C           -25.96      72.19       -15.2       
C           -25.12      71.17       -15.49      
C           -32.42      70.33       -14.9       
C           -31.29      69.69       -15.29      
N           -32.1       71.72       -14.9       
C           -30.76      71.95       -15.36      
C           -30.71      68.44       -15.68      
O           -31.17      67.37       -15.75      
O           -30.24      73.09       -15.47      
C           -28.69      67.76       -16.72      
C           -32.49      72.8        -14.03      
H           -31.76982   72.81398    -13.21193   
H           -33.49      72.57       -13.65      
H           -32.53      73.76       -14.5       
H           -27.65      67.55       -16.32      
H           -28.71913   68.12417    -17.74695   
H           -29.23      66.81       -16.73      
N           -29.29      68.69       -15.84      
C           -30.21      70.63       -15.43      
C           -29.01      69.98       -15.59      
C           -36.16      69.21       -14.03      
C           -35.44      68.09       -14.29      
S           -35.07      70.55       -14.24      
H           -33.27      67.66       -14.92      
H           -35.78      67.09       -14.22      
C           -34.02      68.4        -14.71      
C           -33.68      69.73       -14.72      
C           -39.62      69.88       -11.34      
C           -39.31      68.54       -11.9       
C           -38.86      70.87       -11.87      
N           -38.24      67.03       -13.21      
N           -39.15      66.45       -12.47      
N           -39.88      67.32       -11.71      
C           -39.89      65.18       -12.83      
H           -39.12      71.91       -11.53      
H           -37.12      71.53       -13.0       
H           -39.11059   64.47853    -13.12759   
H           -40.64      64.82       -12.1       
H           -40.5156    65.36562    -13.70308   
C           -37.73      70.62       -12.68      
C           -38.29      68.35       -12.91      
C           -37.38      69.42       -13.28      
C           -42.34      71.42       -8.82       
C           -42.41      70.07       -8.71       
S           -41.19      71.83       -10.06      
H           -41.49      68.32       -9.68       
H           -42.9       69.49       -8.01       
C           -41.49      69.41       -9.61       
C           -40.7       70.21       -10.4       
C           -44.34      72.89       -4.67       
C           -43.82      73.17       -5.93       
N           -44.64      71.56       -4.71       
C           -44.26      70.92       -6.0        
C           -43.25      74.28       -6.66       
O           -43.25      75.46       -6.46       
O           -44.34      69.78       -6.27       
C           -41.95      74.53       -8.76       
C           -44.4       70.7        -3.57       
H           -45.25778   70.05846    -3.36817    
H           -43.48      70.1        -3.61       
H           -44.12      71.27       -2.68       
H           -41.97      74.18       -9.79       
H           -41.01929   74.94524    -8.3734     
H           -42.68      75.36       -8.91       
N           -42.62      73.65       -7.78       
C           -43.6       71.98       -6.7        
C           -42.89      72.31       -7.84       
C           -45.66      75.27       -1.81       
C           -44.78      76.01       -2.48       
S           -45.73      73.62       -2.3        
H           -43.36      75.49       -4.24       
H           -44.49      77.01       -2.1        
C           -44.2       75.18       -3.55       
C           -44.64      73.89       -3.64       
C           -48.53      77.04       1.2         
C           -48.5       75.68       0.87        
C           -47.54      77.74       0.49        
N           -47.63      73.74       0.07        
N           -48.67      73.52       0.87        
N           -49.17      74.62       1.46        
C           -49.42      72.3        0.84        
H           -47.66      78.79       0.44        
H           -45.91      77.93       -0.82       
H           -49.02322   71.64106    0.06769     
H           -49.3       71.79       1.78        
H           -50.48387   72.46031    0.66512     
C           -46.58      77.17       -0.37       
C           -47.42      75.05       0.06        
C           -46.54      75.81       -0.7        
C           -51.13      79.35       2.95        
C           -51.12      78.17       3.68        
S           -49.78      79.4        1.84        
H           -50.2       76.18       3.19        
H           -51.93      77.83       4.34        
C           -50.2       77.24       3.08        
C           -49.41      77.74       2.1         
C           -55.66      80.7        2.8         
C           -54.32      81.01       2.62        
N           -55.64      79.54       3.55        
C           -54.38      78.89       3.54        
C           -53.44      82.14       2.27        
O           -53.68      83.32       1.91        
O           -54.2       77.8        3.97        
C           -50.89      82.35       2.14        
C           -56.64      79.07       4.49        
H           -57.25471   78.25272    4.11279     
H           -56.21      78.64       5.4         
H           -57.24      79.93       4.85        
H           -50.25      82.0        1.32        
H           -50.32569   82.45077    3.06709     
H           -51.29      83.28       1.85        
N           -52.1       81.56       2.31        
C           -53.46      79.92       3.05        
C           -52.18      80.24       2.75        
C           -58.48      82.94       1.16        
C           -59.07      81.92       1.81        
S           -56.75      82.89       1.41        
H           -58.38      80.19       3.1         
H           -60.1       81.81       1.71        
C           -58.11      81.08       2.51        
C           -56.81      81.51       2.4         
C           -60.42      86.13       -1.35       
C           -60.86      84.78       -1.33       
C           -59.34      86.29       -0.51       
N           -60.94      82.55       -0.71       
N           -61.84      82.87       -1.69       
N           -61.87      84.15       -2.07       
C           -62.39      81.79       -2.54       
H           -58.72      87.23       -0.58       
H           -57.9       85.43       0.87        
H           -62.51752   80.92569    -1.88823    
H           -63.41      81.95       -2.97       
H           -61.69492   81.60709    -3.35946    
C           -58.73      85.21       0.2         
C           -60.27      83.71       -0.52       
C           -59.11      83.93       0.26        
C           -62.78      88.54       -3.55       
C           -61.81      89.3        -2.85       
S           -62.39      86.89       -3.28       
H           -60.28      89.0        -1.26       
H           -61.83      90.42       -2.81       
C           -60.96      88.53       -1.99       
C           -61.11      87.18       -2.09       
C           -65.58      91.97       -5.32       
C           -65.18      90.62       -5.34       
N           -64.9       92.61       -4.28       
C           -64.23      91.62       -3.47       
C           -65.42      89.31       -6.03       
O           -66.12      88.89       -6.89       
O           -63.75      91.89       -2.33       
C           -63.99      87.36       -6.14       
C           -64.78      93.94       -3.85       
H           -65.59863   94.25051    -3.20074    
H           -64.73      94.64       -4.74       
H           -63.82      94.08       -3.34       
H           -63.46      86.64       -5.55       
H           -63.44019   87.51807    -7.06781    
H           -64.9       86.79       -6.29       
N           -64.42      88.52       -5.43       
C           -64.3       90.42       -4.26       
C           -63.86      89.16       -4.29       
C           -67.35      94.22       -8.02       
C           -67.4       92.91       -8.37       
S           -66.8       94.34       -6.38       
H           -66.7       91.03       -7.71       
H           -67.82      92.62       -9.31       
C           -66.88      92.02       -7.41       
C           -66.45      92.66       -6.31       
C           -68.63      97.74       -10.45      
C           -67.82      97.81       -9.25       
C           -68.95      96.42       -10.73      
N           -66.59      97.16       -7.34       
N           -66.39      98.39       -7.77       
N           -67.08      98.88       -8.79       
C           -65.39      99.27       -7.07       
H           -69.56      96.22       -11.56      
H           -68.86      94.23       -10.28      
H           -64.83923   98.67632    -6.34041    
H           -64.68      99.67       -7.77       
H           -65.91593   100.10154   -6.60092    
C           -68.55      95.26       -9.98       
C           -67.47      96.71       -8.39       
C           -67.74      95.36       -8.81       
C           -70.59      100.35      -12.62      
C           -69.65      101.05      -12.01      
S           -70.48      98.67       -12.19      
H           -68.08      100.7       -10.55      
H           -69.49      102.08      -12.08      
C           -68.78      100.23      -11.22      
C           -69.02      98.88       -11.22      
C           -73.16      103.79      -14.63      
C           -72.83      102.45      -14.57      
N           -72.51      104.48      -13.65      
C           -71.76      103.53      -12.86      
C           -73.16      101.21      -15.18      
O           -73.83      100.88      -16.13      
O           -71.07      103.91      -11.99      
C           -72.23      98.93       -15.0       
C           -71.94      105.77      -13.81      
H           -70.96245   105.68375   -14.2844    
H           -71.66      106.22      -12.86      
H           -72.58      106.51      -14.27      
H           -72.37      98.07       -14.28      
H           -71.31503   98.72985    -15.55756   
H           -73.19      98.74       -15.45      
N           -72.28      100.25      -14.46      
C           -71.96      102.23      -13.42      
C           -71.63      100.9       -13.41      
C           -75.36      105.11      -17.68      
C           -75.4       106.05      -16.64      
S           -74.51      103.69      -17.04      
H           -74.85      106.14      -14.57      
H           -76.01      106.91      -16.61      
C           -74.78      105.63      -15.51      
C           -74.08      104.41      -15.56      
C           -76.23      106.01      -21.93      
C           -75.83      104.67      -21.49      
C           -76.27      106.95      -20.92      
N           -75.33      102.98      -20.13      
N           -75.23      102.62      -21.43      
N           -75.49      103.55      -22.29      
C           -75.28      101.21      -21.91      
H           -76.45      108.01      -21.2       
H           -75.8       107.41      -18.81      
H           -75.24541   100.50442   -21.0799    
H           -74.45      101.12      -22.55      
H           -76.17218   101.03006   -22.50978   
C           -76.03      106.61      -19.56      
C           -75.58      104.3       -20.13      
C           -75.7       105.31      -19.11      
H           45.46       71.9        9.67        
H           -77.0       105.98      -22.66      
