472

C           0.86        1.81        16.75       
C           2.22        1.85        16.59       
S           0.21        2.77        15.45       
H           3.66        2.75        15.29       
H           2.93        1.36        17.19       
C           2.67        2.62        15.47       
C           1.73        3.3         14.76       
C           0.01        -1.03       20.59       
C           -0.47       -0.3        19.61       
N           1.41        -1.06       20.45       
C           1.8         -0.48       19.2        
C           -1.74       0.12        19.07       
O           -2.91       -0.2        19.45       
O           2.96        -0.35       18.92       
C           -2.39       1.5         17.09       
C           2.48        -1.59       21.35       
H           2.93051     -2.45527    20.86373    
H           2.04        -1.99       22.25       
H           3.2         -0.8        21.62       
H           -2.23       1.42        15.96       
H           -2.68814    2.45986     17.51176    
H           -3.17       0.82        17.19       
N           -1.31       0.95        17.91       
C           0.6         0.14        18.7        
C           0.1         1.02        17.73       
C           -1.58       -3.66       23.11       
C           -2.5        -2.65       22.85       
S           -0.12       -3.33       22.24       
H           -2.67       -0.84       21.57       
H           -3.59       -2.73       23.15       
C           -2.03       -1.65       21.97       
C           -0.68       -1.73       21.66       
C           -2.18       -7.44       25.27       
C           -0.89       -6.95       24.96       
C           -3.18       -6.63       24.77       
N           0.7         -5.44       24.37       
N           1.15        -6.51       25.07       
N           0.28        -7.47       25.36       
C           2.38        -6.37       25.8        
H           -4.2        -6.98       24.8        
H           -3.74       -4.83       23.63       
H           2.84252     -5.47342    25.38729    
H           2.04        -6.12       26.83       
H           3.02606     -7.22447    25.59854    
C           -2.98       -5.38       24.06       
C           -0.65       -5.68       24.34       
C           -1.72       -4.87       23.88       
C           -3.68       -10.48      27.42       
C           -2.49       -10.88      26.88       
S           -3.99       -8.86       26.81       
H           -1.04       -10.02      25.3        
H           -1.98       -11.82      27.17       
C           -1.87       -9.84       26.05       
C           -2.53       -8.66       26.01       
C           -5.33       -14.38      29.73       
C           -5.36       -13.09      29.47       
N           -4.23       -14.84      28.96       
C           -3.64       -13.83      28.16       
C           -6.13       -11.88      29.74       
O           -7.09       -11.78      30.45       
O           -2.71       -14.02      27.4        
C           -5.81       -9.42       29.46       
C           -3.62       -16.18      28.91       
H           -2.68481    -16.08229   29.46134    
H           -3.44       -16.34      27.84       
H           -4.21       -17.0       29.21       
H           -5.97       -8.67       28.67       
H           -4.96923    -9.11558    30.08333    
H           -6.69       -9.48       30.0        
N           -5.6        -10.75      28.98       
C           -4.4        -12.63      28.54       
C           -4.54       -11.25      28.26       
C           -7.39       -16.64      32.37       
C           -7.64       -15.27      32.51       
S           -6.35       -16.82      30.95       
H           -6.76       -13.43      31.84       
H           -8.19       -14.95      33.28       
C           -6.81       -14.46      31.68       
C           -6.09       -15.09      30.74       
C           -9.43       -20.2       33.98       
C           -10.0       -18.97      34.0        
C           -8.18       -20.21      33.4        
N           -10.15      -16.77      33.73       
N           -11.17      -17.32      34.38       
N           -11.12      -18.57      34.64       
C           -12.2       -16.5       35.0        
H           -7.62       -21.09      33.15       
H           -6.5        -19.19      32.47       
H           -12.09453   -15.52965   34.51482    
H           -13.19      -16.98      34.83       
H           -12.10932   -16.39537   36.08117    
C           -7.53       -19.05      32.81       
C           -9.3        -17.79      33.51       
C           -8.08       -17.82      32.79       
C           -11.62      -23.47      35.41       
C           -10.46      -23.87      34.77       
S           -11.68      -21.77      35.1        
H           -8.67       -23.02      33.64       
H           -10.21      -24.88      34.77       
C           -9.6        -22.77      34.21       
C           -10.07      -21.51      34.35       
C           -13.88      -27.35      37.36       
C           -13.92      -26.03      36.97       
N           -12.65      -27.86      37.13       
C           -11.84      -26.91      36.39       
C           -14.73      -24.83      36.95       
O           -15.79      -24.54      37.38       
O           -10.65      -27.05      36.09       
C           -14.41      -22.44      36.61       
C           -12.08      -29.19      37.52       
H           -12.00176   -29.77322   36.60249    
H           -11.1       -29.03      37.89       
H           -12.57      -29.72      38.28       
H           -14.21      -21.82      35.7        
H           -14.00874   -22.02441   37.53433    
H           -15.53      -22.46      36.62       
N           -13.91      -23.85      36.37       
C           -12.63      -25.64      36.39       
C           -12.65      -24.3       36.01       
C           -16.95      -29.76      38.24       
C           -17.42      -28.52      38.09       
S           -15.26      -29.8       38.08       
H           -16.68      -26.6       37.55       
H           -18.43      -28.17      38.19       
C           -16.4       -27.61      37.73       
C           -15.11      -28.07      37.74       
C           -19.53      -33.19      39.16       
C           -18.18      -33.42      38.99       
C           -19.97      -31.84      38.91       
N           -16.07      -32.79      38.49       
N           -16.19      -34.08      38.76       
N           -17.43      -34.56      39.04       
C           -15.17      -35.07      38.31       
H           -21.09      -31.63      38.95       
H           -19.54      -29.85      38.44       
H           -14.22177   -34.76546   38.75297    
H           -15.55      -36.03      38.62       
H           -15.07137   -35.10523   37.22504    
C           -19.1       -30.8       38.65       
C           -17.34      -32.3       38.72       
C           -17.75      -30.91      38.6        
C           -22.85      -35.35      39.64       
C           -21.77      -36.22      39.62       
S           -22.23      -33.77      39.6        
H           -19.49      -35.99      39.55       
H           -21.82      -37.3       39.48       
C           -20.5       -35.54      39.43       
C           -20.58      -34.19      39.36       
C           -26.52      -38.25      40.71       
C           -26.11      -36.97      40.28       
N           -25.36      -39.05      40.96       
C           -24.19      -38.23      40.64       
C           -26.58      -35.62      39.93       
O           -27.66      -35.04      39.8        
O           -23.07      -38.73      40.83       
C           -25.53      -33.75      38.76       
C           -25.31      -40.47      40.71       
H           -25.08378   -40.66195   39.66115    
H           -26.36      -40.84      40.79       
H           -24.66      -40.98      41.45       
H           -24.6       -33.64      38.15       
H           -25.82182   -32.88183   39.35094    
H           -26.22      -34.01      37.98       
N           -25.38      -34.9       39.61       
C           -24.64      -36.9       40.16       
C           -24.24      -35.7       39.81       
C           -29.97      -39.47      42.08       
C           -30.18      -38.48      41.09       
S           -28.26      -39.76      42.19       
H           -28.91      -37.26      39.67       
H           -31.23      -38.13      40.93       
C           -28.96      -38.0       40.52       
C           -27.85      -38.66      40.91       
C           -32.72      -41.7       44.63       
C           -33.21      -40.66      43.74       
C           -31.35      -41.76      44.74       
N           -33.03      -38.85      42.52       
N           -34.34      -39.16      42.84       
N           -34.47      -40.25      43.6        
C           -35.46      -38.54      42.22       
H           -30.9       -42.49      45.43       
H           -29.42      -41.26      43.92       
H           -35.17311   -37.5324    41.91912    
H           -35.76      -39.2       41.38       
H           -36.31388   -38.54706   42.89746    
C           -30.51      -41.08      43.83       
C           -32.3       -39.84      43.04       
C           -30.94      -40.06      42.94       
C           -35.37      -43.24      47.15       
C           -34.52      -44.25      46.68       
S           -34.94      -41.77      46.4        
H           -32.6       -44.36      45.46       
H           -34.69      -45.31      46.93       
C           -33.4       -43.74      45.86       
C           -33.57      -42.39      45.57       
C           -39.18      -42.23      50.0        
C           -38.58      -43.07      49.12       
N           -38.36      -41.13      50.16       
C           -37.23      -41.27      49.33       
C           -38.75      -44.27      48.23       
O           -39.69      -45.12      48.19       
O           -36.26      -40.55      49.36       
C           -37.49      -45.38      46.4        
C           -38.31      -40.23      51.32       
H           -37.91214   -40.79127   52.16545    
H           -39.29      -39.86      51.66       
H           -37.69      -39.44      51.19       
H           -36.55      -45.89      46.41       
H           -37.7268    -44.9582    45.42321    
H           -38.19      -46.17      46.48       
N           -37.53      -44.45      47.51       
C           -37.29      -42.54      48.7        
C           -36.59      -43.52      47.87       
C           -42.49      -42.71      52.28       
C           -42.19      -43.83      51.51       
S           -41.31      -41.51      51.85       
H           -40.85      -44.64      50.01       
H           -42.82      -44.68      51.64       
C           -41.09      -43.79      50.6        
C           -40.43      -42.61      50.68       
C           -45.66      -41.67      55.07       
C           -45.27      -43.02      54.94       
C           -44.97      -40.77      54.29       
N           -44.06      -44.7       54.05       
N           -44.8       -45.02      55.11       
N           -45.68      -44.14      55.55       
C           -44.4       -46.06      56.04       
H           -45.27      -39.79      54.38       
H           -43.57      -40.33      52.71       
H           -44.10278   -46.95167   55.48802    
H           -43.52      -45.71      56.58       
H           -45.2238    -46.18894   56.74202    
C           -44.06      -41.12      53.33       
C           -44.22      -43.35      54.05       
C           -43.57      -42.42      53.23       
C           -48.47      -41.19      57.79       
C           -48.4       -40.06      57.07       
S           -47.24      -42.22      57.26       
H           -47.28      -39.38      55.25       
H           -49.03      -39.18      57.14       
C           -47.39      -40.09      56.02       
C           -46.73      -41.24      55.98       
C           -52.31      -40.49      60.63       
C           -51.25      -41.3       60.21       
N           -52.05      -39.2       60.12       
C           -50.89      -39.28      59.28       
C           -50.82      -42.71      60.27       
O           -51.29      -43.71      60.84       
O           -50.37      -38.27      58.74       
C           -48.85      -43.98      59.39       
C           -52.44      -37.88      60.62       
H           -53.24105   -37.52954   59.96915    
H           -51.63      -37.17      60.62       
H           -52.9       -37.96      61.59       
H           -47.84      -43.7       59.42       
H           -49.09154   -44.60517   58.53039    
H           -49.14      -44.49      60.26       
N           -49.63      -42.72      59.42       
C           -50.37      -40.63      59.37       
C           -49.4       -41.46      58.85       
C           -55.54      -40.98      62.81       
C           -54.64      -41.98      63.17       
S           -54.91      -40.11      61.42       
H           -52.52      -42.52      62.67       
H           -54.77      -42.72      63.92       
C           -53.34      -41.86      62.46       
C           -53.31      -40.81      61.56       
C           -59.89      -40.53      63.17       
C           -59.23      -41.65      63.72       
C           -59.02      -39.66      62.51       
N           -57.48      -42.82      64.45       
N           -58.6       -43.33      64.87       
N           -59.64      -42.66      64.43       
C           -58.67      -44.8       64.81       
H           -59.37      -38.84      61.88       
H           -57.11      -39.1       61.81       
H           -57.68298   -45.15701   65.10401    
H           -59.4       -45.29      65.49       
H           -58.92751   -45.25064   63.8515     
C           -57.65      -39.81      62.43       
C           -57.8       -41.76      63.67       
C           -56.94      -40.85      63.07       
C           -63.75      -41.15      62.5        
C           -63.49      -39.83      62.33       
S           -62.35      -41.95      63.06       
H           -61.73      -38.46      62.24       
H           -64.26      -39.17      61.89       
C           -62.11      -39.45      62.48       
C           -61.36      -40.48      62.93       
C           -68.32      -41.66      61.14       
C           -67.15      -42.22      61.53       
N           -68.18      -40.3       61.39       
C           -66.92      -40.02      62.04       
C           -66.47      -43.47      61.64       
O           -66.72      -44.55      61.3        
O           -66.64      -38.85      62.33       
C           -63.99      -44.25      61.7        
C           -68.86      -39.23      60.79       
H           -68.39851   -39.06885   59.81575    
H           -69.99      -39.37      60.72       
H           -68.73      -38.27      61.35       
H           -63.37      -44.26      62.6        
H           -63.60866   -44.1876    60.68079    
H           -64.5       -45.22      61.69       
N           -65.09      -43.22      61.9        
C           -66.22      -41.26      61.99       
C           -64.98      -41.84      62.28       
C           -70.17      -43.7       58.3        
C           -71.06      -42.87      58.93       
S           -68.65      -43.56      59.1        
H           -70.89      -41.16      60.43       
H           -72.11      -42.75      58.63       
C           -70.47      -41.99      59.93       
C           -69.22      -42.41      60.29       
C           -70.38      -46.05      54.61       
C           -71.45      -45.18      55.01       
C           -69.34      -46.05      55.51       
N           -72.52      -43.75      56.34       
N           -73.22      -44.07      55.24       
N           -72.6       -44.87      54.42       
C           -74.54      -43.58      55.12       
H           -68.49      -46.56      55.21       
H           -68.38      -45.47      57.26       
H           -74.67589   -42.72172   55.77802    
H           -74.71      -43.33      54.07       
H           -75.22537   -44.37613   55.41076    
C           -69.29      -45.32      56.74       
C           -71.39      -44.42      56.24       
C           -70.33      -44.55      57.16       
C           -69.77      -48.48      51.5        
C           -70.79      -47.57      51.2        
S           -69.1       -48.04      53.05       
H           -71.96      -46.02      52.33       
H           -71.49      -47.85      50.33       
C           -71.17      -46.74      52.33       
C           -70.37      -46.86      53.41       
C           -69.37      -50.94      47.41       
C           -69.01      -50.72      48.7        
N           -70.23      -49.88      47.09       
C           -70.37      -48.94      48.15       
C           -68.2       -51.32      49.79       
O           -67.4       -52.31      49.81       
O           -70.93      -47.86      48.15       
C           -67.85      -50.84      52.16       
C           -71.23      -49.79      46.01       
H           -70.812     -49.12121   45.25761    
H           -71.39      -50.74      45.54       
H           -72.16      -49.41      46.41       
H           -68.62      -50.74      52.95       
H           -66.91165   -50.33581   52.39109    
H           -67.6       -51.93      52.1        
N           -68.45      -50.45      50.92       
C           -69.65      -49.55      49.23       
C           -69.32      -49.43      50.58       
C           -68.27      -53.59      44.7        
C           -68.09      -54.14      45.98       
S           -69.11      -52.07      44.93       
H           -68.32      -53.54      48.09       
H           -67.71      -55.17      46.05       
C           -68.44      -53.23      47.05       
C           -69.09      -52.07      46.63       
C           -67.58      -55.77      40.98       
C           -67.45      -54.35      41.06       
C           -67.9       -56.38      42.19       
N           -67.32      -52.4       42.12       
N           -67.11      -52.34      40.83       
N           -67.12      -53.42      40.14       
C           -66.8       -51.06      40.24       
H           -67.9       -57.47      42.26       
H           -68.13      -56.37      44.3        
H           -66.38726   -50.3982    41.00143    
H           -66.04      -51.21      39.48       
H           -67.69886   -50.6495    39.77995    
C           -68.19      -55.69      43.39       
C           -67.67      -53.67      42.29       
C           -68.12      -54.29      43.43       
C           -66.47      -57.43      37.58       
C           -66.93      -58.41      38.37       
S           -66.48      -55.94      38.37       
H           -67.75      -58.47      40.44       
H           -67.02      -59.47      38.05       
C           -67.32      -57.92      39.63       
C           -67.17      -56.56      39.82       
C           -65.22      -59.96      33.76       
C           -65.11      -58.77      34.44       
N           -66.23      -60.7       34.38       
C           -66.76      -60.04      35.48       
C           -64.31      -57.52      34.48       
O           -63.48      -56.98      33.77       
O           -67.59      -60.6       36.22       
C           -64.46      -55.58      35.91       
C           -67.05      -61.78      33.82       
H           -68.03702   -61.48675   33.46238    
H           -67.13      -62.62      34.55       
H           -66.67      -62.3       32.96       
H           -64.19      -55.44      36.95       
H           -65.06853   -54.74954   35.55204    
H           -63.53      -55.55      35.41       
N           -64.97      -56.88      35.58       
C           -66.07      -58.75      35.48       
C           -66.01      -57.62      36.24       
C           -62.87      -62.01      31.32       
C           -62.41      -60.75      31.54       
S           -64.3       -62.19      32.28       
H           -62.96      -58.87      32.39       
H           -61.58      -60.39      31.06       
C           -63.23      -59.91      32.25       
C           -64.38      -60.49      32.71       
C           -61.47      -65.4       29.05       
C           -60.66      -64.24      29.19       
C           -62.79      -65.2       29.41       
N           -60.06      -62.2       29.95       
N           -59.13      -62.77      29.17       
N           -59.42      -63.96      28.75       
C           -57.82      -62.2       29.08       
H           -63.48      -66.05      29.27       
H           -64.25      -64.06      30.56       
H           -57.89205   -61.1193    28.95752    
H           -57.17      -62.3       29.98       
H           -57.31678   -62.61817   28.20822    
C           -63.26      -64.1       30.25       
C           -61.11      -63.09      29.89       
C           -62.4       -63.07      30.54       
C           -59.61      -68.7       28.11       
C           -60.95      -68.94      27.9        
S           -59.41      -67.02      28.48       
H           -62.86      -67.85      28.29       
H           -61.22      -69.9       27.63       
C           -61.79      -67.81      28.13       
C           -61.06      -66.63      28.37       
C           -58.28      -73.29      28.44       
C           -57.95      -71.97      28.25       
N           -59.64      -73.32      28.57       
C           -60.19      -72.04      28.72       
C           -56.86      -71.09      27.86       
O           -55.64      -71.33      27.78       
O           -61.37      -71.9       29.01       
C           -56.52      -68.58      27.57       
C           -60.54      -74.4       28.23       
H           -61.14058   -74.16563   27.3511     
H           -61.18      -74.68      28.99       
H           -60.04      -75.28      27.84       
H           -56.64      -67.64      28.15       
H           -56.741     -68.28771   26.54344    
H           -55.49      -68.9       27.65       
N           -57.33      -69.76      28.0        
C           -59.09      -71.16      28.37       
C           -58.71      -69.84      28.17       
C           -56.19      -76.53      29.08       
C           -55.43      -75.68      28.37       
S           -57.8       -75.95      29.11       
H           -55.65      -73.75      27.39       
H           -54.43      -75.87      28.04       
C           -56.11      -74.5       28.0        
C           -57.44      -74.43      28.37       
C           -55.2       -80.73      29.99       
C           -54.22      -79.73      30.04       
C           -56.45      -80.37      29.59       
N           -53.45      -77.61      30.0        
N           -52.56      -78.58      30.4        
N           -52.97      -79.8       30.57       
C           -51.25      -78.11      30.67       
H           -57.21      -81.15      29.47       
H           -57.89      -78.92      29.07       
H           -51.15133   -77.18672   30.09911    
H           -50.65      -78.97      30.47       
H           -51.16233   -77.8689    31.72938    
C           -56.84      -79.03      29.39       
C           -54.58      -78.42      29.83       
C           -55.89      -77.91      29.46       
H           1.87        4.27        14.3        
H           -55.0       -81.76      30.42       
