472

C           47.5        14.21       87.44       
C           46.31       13.62       87.64       
S           48.01       14.89       88.97       
H           44.67       13.47       89.08       
H           45.73       13.18       86.82       
C           45.68       13.81       88.87       
C           46.54       14.34       89.79       
C           48.04       12.82       82.94       
C           48.46       13.6        83.99       
N           47.15       11.81       83.41       
C           47.0        11.98       84.88       
C           49.31       14.72       84.28       
O           50.06       15.49       83.59       
O           46.26       11.27       85.56       
C           49.28       16.35       86.09       
C           47.27       10.41       83.05       
H           48.06977    9.94995     83.63037    
H           47.6        10.32       81.96       
H           46.26       9.89        83.22       
H           49.46       16.44       87.19       
H           48.46914    17.03887    85.8532     
H           50.24       16.62       85.59       
N           48.97       15.04       85.61       
C           47.85       13.18       85.18       
C           48.18       14.11       86.17       
C           49.64       13.32       79.32       
C           48.42       12.69       79.31       
S           50.03       13.54       80.99       
H           46.85       12.03       80.69       
H           47.93       12.46       78.37       
C           47.78       12.52       80.56       
C           48.47       12.99       81.58       
C           52.42       13.73       75.86       
C           52.66       14.34       77.12       
C           51.28       13.03       75.79       
N           52.5        14.74       79.28       
N           53.55       15.34       78.8        
N           53.73       15.18       77.53       
C           54.25       16.36       79.57       
H           51.05       12.62       74.79       
H           49.29       12.52       76.57       
H           53.66083    16.72644    80.41065    
H           55.23       16.05       79.88       
H           54.48035    17.21661    78.93654    
C           50.34       12.87       76.86       
C           51.89       14.06       78.28       
C           50.6        13.38       78.16       
C           54.29       14.25       72.35       
C           55.21       14.17       73.34       
S           52.69       14.14       73.01       
H           55.28       14.01       75.51       
H           56.26       14.33       73.17       
C           54.62       14.02       74.64       
C           53.31       13.9        74.66       
C           53.18       15.47       67.89       
C           54.12       15.5        68.88       
N           52.31       14.4        68.16       
C           52.48       13.99       69.49       
C           55.41       16.15       69.25       
O           56.26       16.8        68.7        
O           51.82       13.19       70.16       
C           56.35       16.64       71.33       
C           51.33       13.83       67.31       
H           50.35516    14.0307     67.75441    
H           51.51       12.75       67.32       
H           51.37       14.09       66.28       
H           56.72       16.18       72.23       
H           55.8106     17.56057    71.55295    
H           57.24       16.94       70.68       
N           55.54       15.73       70.58       
C           53.67       14.7        69.92       
C           54.52       14.79       71.0        
C           52.17       18.16       65.2        
C           53.51       18.3        65.54       
S           51.69       16.64       65.85       
H           54.98       17.41       66.78       
H           54.11       19.08       65.09       
C           53.95       17.31       66.45       
C           53.09       16.32       66.75       
C           49.88       20.97       62.75       
C           49.58       19.58       62.85       
C           50.92       21.32       63.56       
N           49.73       17.48       63.54       
N           48.83       17.66       62.63       
N           48.62       18.9        62.16       
C           47.85       16.64       62.27       
H           51.16       22.35       63.53       
H           52.47       20.84       64.99       
H           48.2523     15.64861    62.47834    
H           47.08       16.83       62.95       
H           47.59428    16.68972    61.21159    
C           51.71       20.42       64.3        
C           50.33       18.7        63.63       
C           51.42       19.08       64.4        
C           48.17       24.29       61.24       
C           47.53       23.19       60.77       
S           49.54       23.68       62.17       
H           47.57       20.99       60.76       
H           46.59       23.23       60.11       
C           48.01       21.9        61.19       
C           49.14       21.94       61.97       
C           45.53       28.09       59.77       
C           46.62       27.58       60.4        
N           44.9        26.98       59.14       
C           45.45       25.74       59.58       
C           47.74       28.0        61.23       
O           47.98       29.03       61.75       
O           44.86       24.68       59.34       
C           49.52       26.84       62.53       
C           43.61       26.97       58.45       
H           43.75592    26.99918    57.37021    
H           43.13       26.07       58.72       
H           42.99       27.75       58.83       
H           50.28       26.1        62.36       
H           49.20665    26.70155    63.56477    
H           49.94       27.86       62.39       
N           48.4        26.78       61.62       
C           46.63       26.16       60.35       
C           47.74       25.69       61.05       
C           44.29       31.75       59.06       
C           45.63       31.79       59.36       
S           43.77       30.13       59.21       
H           47.25       30.42       59.88       
H           46.23       32.7        59.37       
C           46.19       30.55       59.7        
C           45.3        29.49       59.51       
C           41.67       35.23       59.42       
C           41.15       33.97       58.89       
C           43.03       35.29       59.61       
N           41.31       31.91       58.15       
N           40.08       32.33       58.27       
N           39.91       33.54       58.63       
C           38.89       31.45       58.02       
H           43.5        36.21       59.83       
H           44.85       34.4        59.52       
H           39.17181    30.43547    58.30181    
H           38.05       31.78       58.58       
H           38.56857    31.47795    56.97885    
C           43.86       34.23       59.38       
C           42.03       32.87       58.68       
C           43.4        32.94       59.01       
C           40.02       38.45       61.06       
C           39.2        37.98       60.13       
S           41.46       37.42       60.99       
H           38.99       36.2        58.78       
H           38.26       38.55       59.82       
C           39.58       36.79       59.47       
C           40.84       36.36       59.81       
C           40.73       41.35       64.7        
C           40.02       41.11       63.56       
N           41.32       40.18       65.1        
C           41.25       39.19       64.0        
C           39.03       41.63       62.68       
O           38.19       42.52       62.78       
O           41.69       38.07       64.13       
C           38.54       41.4        60.28       
C           42.0        39.96       66.36       
H           43.06003    39.76727    66.1948     
H           41.62       39.06       66.87       
H           41.8        40.75       67.13       
H           37.98       40.69       59.7        
H           39.27329    41.94107    59.68198    
H           37.84       42.22       60.58       
N           39.08       40.79       61.51       
C           40.4        39.83       63.02       
C           39.83       39.63       61.81       
C           39.84       44.71       66.75       
C           41.12       44.32       67.02       
S           39.14       43.67       65.55       
H           42.54       42.71       66.45       
H           41.87       44.87       67.6        
C           41.52       43.1        66.38       
C           40.55       42.61       65.52       
C           37.3        48.11       67.6        
C           38.69       48.11       67.95       
C           36.84       46.87       67.23       
N           40.83       47.29       68.08       
N           40.76       48.53       68.47       
N           39.52       49.01       68.56       
C           41.93       49.34       68.66       
H           35.84       46.68       66.91       
H           37.28       44.81       66.82       
H           42.82049    48.71388    68.60434    
H           41.95       50.21       67.93       
H           41.88573    49.84176    69.62663    
C           37.7        45.72       67.01       
C           39.51       47.04       67.64       
C           39.04       45.85       67.11       
C           35.43       51.56       67.23       
C           34.46       50.61       67.44       
S           36.98       50.87       67.32       
H           34.34       48.47       67.58       
H           33.45       50.77       67.11       
C           35.0        49.32       67.59       
C           36.36       49.27       67.69       
C           36.63       56.24       66.99       
C           35.68       55.29       66.71       
N           37.58       55.61       67.8        
C           37.48       54.18       67.79       
C           34.4        54.98       66.09       
O           33.62       55.69       65.49       
O           38.23       53.39       68.34       
C           33.0        53.01       65.56       
C           38.67       56.18       68.55       
H           39.61594    56.02836    68.03009    
H           38.72       55.69       69.51       
H           38.54       57.24       68.85       
H           32.46       52.55       66.37       
H           33.26547    52.25551    64.81948    
H           32.37       53.77       65.1        
N           34.22       53.6        66.18       
C           36.1        54.02       67.23       
C           35.24       53.03       66.95       
C           37.18       60.11       66.05       
C           35.86       59.69       65.85       
S           38.03       58.75       66.69       
H           34.74       57.79       66.0        
H           35.08       60.28       65.5        
C           35.63       58.32       66.18       
C           36.67       57.64       66.77       
C           38.45       64.32       65.94       
C           39.37       63.27       65.68       
C           37.2        63.89       65.92       
N           40.21       61.17       65.65       
N           41.1        62.18       65.43       
N           40.71       63.39       65.56       
C           42.51       61.97       65.54       
H           36.41       64.64       66.07       
H           35.69       62.33       65.8        
H           42.75294    60.90799    65.50529    
H           42.93       62.42       64.64       
H           42.89457    62.50413    66.40885    
C           36.77       62.48       65.84       
C           39.02       61.87       65.7        
C           37.66       61.47       65.88       
C           39.55       68.14       65.54       
C           38.34       68.12       66.16       
S           40.03       66.47       65.22       
H           37.01       66.47       67.13       
H           37.77       68.98       66.45       
C           37.92       66.75       66.56       
C           38.73       65.76       66.07       
C           43.32       70.46       63.67       
C           41.96       70.4        63.83       
N           43.74       69.49       64.56       
C           42.74       68.6        65.08       
C           40.72       70.96       63.35       
O           40.38       71.89       62.59       
O           43.0        67.58       65.82       
C           38.38       70.17       63.39       
C           45.02       69.42       65.17       
H           45.5215     68.54596    64.75447    
H           45.04       69.33       66.32       
H           45.73       70.22       64.97       
H           37.55       70.28       64.13       
H           38.34379    69.33727    62.68761    
H           38.25       71.08       62.84       
N           39.65       70.26       64.05       
C           41.55       69.31       64.68       
C           40.21       69.27       64.86       
C           45.88       72.34       61.32       
C           44.63       72.86       61.16       
S           45.84       71.14       62.63       
H           42.56       72.62       61.99       
H           44.41       73.68       60.46       
C           43.61       72.3        62.02       
C           44.12       71.33       62.92       
C           49.78       72.76       59.27       
C           48.59       73.27       58.7        
C           49.57       72.18       60.5        
N           46.36       73.85       58.64       
N           46.99       73.93       57.49       
N           48.32       73.9        57.5        
C           46.28       73.93       56.21       
H           50.41       71.87       61.06       
H           48.37       71.79       62.26       
H           45.24246    74.20571    56.39864    
H           46.79       74.61       55.51       
H           46.32896    72.94379    55.74837    
C           48.34       72.09       61.18       
C           47.35       73.19       59.43       
C           47.14       72.56       60.7        
C           53.17       73.05       57.23       
C           53.42       73.1        58.59       
S           51.44       72.86       56.99       
H           52.3        72.97       60.59       
H           54.4        73.17       59.01       
C           52.26       73.04       59.47       
C           51.09       73.05       58.75       
C           57.57       74.04       55.3        
C           56.26       73.79       55.13       
N           57.75       74.28       56.67       
C           56.54       74.09       57.4        
C           55.26       73.46       54.11       
O           55.33       73.45       52.87       
O           56.52       74.31       58.56       
C           52.96       72.79       54.06       
C           58.9        74.95       57.38       
H           59.60247    74.21055    57.76451    
H           59.3        75.64       56.7        
H           58.61       75.6        58.24       
H           52.05       73.24       54.33       
H           52.91053    71.7017     54.02467    
H           53.07       73.32       53.06       
N           54.03       73.3        54.85       
C           55.48       73.72       56.39       
C           54.18       73.37       56.21       
C           60.58       74.45       52.73       
C           59.54       73.84       52.13       
S           60.19       74.57       54.42       
H           57.52       73.12       52.56       
H           59.54       73.55       51.11       
C           58.43       73.63       52.97       
C           58.56       74.01       54.28       
C           64.52       75.68       51.2        
C           63.81       76.45       52.19       
C           63.9        74.53       50.8        
N           62.02       77.06       53.41       
N           62.95       77.96       53.44       
N           64.06       77.72       52.7        
C           62.82       79.2        54.18       
H           64.42       73.79       50.27       
H           62.17       73.28       50.94       
H           61.95458    79.12133    54.838      
H           63.7        79.37       54.68       
H           62.87519    80.06922    53.52463    
C           62.6        74.15       51.3        
C           62.5        76.05       52.66       
C           61.88       74.86       52.19       
C           68.15       76.19       49.82       
C           67.8        77.35       50.41       
S           66.78       75.05       49.79       
H           66.13       78.13       51.5        
H           68.43       78.17       50.55       
C           66.52       77.26       50.98       
C           65.85       76.11       50.72       
C           72.84       76.55       49.73       
C           71.77       75.87       49.32       
N           72.42       77.74       50.27       
C           71.02       77.91       50.19       
C           71.33       74.62       48.75       
O           71.89       73.6        48.35       
O           70.54       78.94       50.58       
C           69.22       73.61       48.03       
C           73.29       78.89       50.66       
H           73.6337     79.4604     49.79709    
H           72.81       79.54       51.35       
H           74.17       78.55       51.14       
H           68.33       73.88       47.62       
H           69.03488    72.76983    48.69929    
H           69.88       73.27       47.16       
N           69.91       74.71       48.75       
C           70.55       76.63       49.68       
C           69.48       75.86       49.39       
C           76.51       75.26       49.82       
C           75.96       74.95       48.6        
S           75.43       76.26       50.72       
H           73.99       75.1        47.59       
H           76.47       74.4        47.86       
C           74.63       75.36       48.44       
C           74.22       76.08       49.47       
C           80.12       73.6        51.76       
C           79.7        73.16       50.47       
C           79.29       74.61       52.33       
N           78.32       72.99       48.68       
N           79.32       72.15       48.7        
N           80.21       72.18       49.68       
C           79.39       71.09       47.72       
H           79.46       74.99       53.38       
H           77.72       76.05       52.21       
H           78.55542    71.13038    47.02003    
H           80.36       71.18       47.14       
H           79.43223    70.11864    48.21272    
C           78.11       75.14       51.69       
C           78.53       73.7        49.84       
C           77.69       74.72       50.44       
C           82.68       72.14       54.35       
C           82.91       71.59       53.14       
S           81.47       73.34       54.22       
H           82.14       71.72       51.02       
H           83.67       70.87       53.0        
C           82.12       72.08       52.06       
C           81.23       73.02       52.52       
C           83.86       71.61       58.93       
C           84.22       71.55       57.63       
N           82.69       72.38       58.97       
C           82.17       72.63       57.64       
C           85.3        71.08       56.73       
O           86.47       70.79       56.95       
O           81.09       73.19       57.48       
C           85.9        71.54       54.47       
C           81.95       73.03       59.99       
H           81.01495    72.48455    60.11751    
H           81.79       74.08       59.87       
H           82.45       73.02       60.97       
H           85.44       72.32       53.85       
H           86.1458     70.69725    53.82389    
H           86.74       71.84       54.99       
N           84.83       71.37       55.48       
C           83.17       72.07       56.8        
C           83.5        71.87       55.46       
C           85.46       70.89       62.53       
C           86.29       70.51       61.52       
S           83.96       71.13       61.74       
H           86.52       70.66       59.34       
H           87.18       70.03       61.77       
C           85.89       70.83       60.18       
C           84.59       71.33       60.15       
C           85.14       69.76       66.81       
C           84.55       70.92       66.29       
C           85.94       69.16       65.85       
N           84.03       72.52       64.85       
N           83.59       72.8        66.06       
N           83.82       71.86       66.97       
C           82.98       74.03       66.52       
H           86.55       68.33       66.23       
H           86.6        68.89       63.82       
H           82.79105    74.61086    65.61722    
H           81.98       73.82       66.96       
H           83.66572    74.51778    67.21279    
C           85.94       69.49       64.47       
C           84.63       71.29       64.96       
C           85.43       70.68       63.99       
C           85.92       69.11       70.58       
C           84.7        69.62       70.49       
S           86.54       68.92       68.95       
H           83.29       70.37       68.89       
H           84.23       69.94       71.42       
C           84.26       69.91       69.16       
C           85.08       69.42       68.22       
C           87.34       69.7        75.15       
C           87.57       69.23       73.92       
N           86.12       70.38       75.12       
C           85.52       70.31       73.8        
C           88.53       68.52       73.09       
O           89.59       67.93       73.37       
O           84.45       70.88       73.59       
C           88.5        67.38       70.88       
C           85.19       70.81       76.19       
H           84.65917    69.90831    76.49541    
H           84.52       71.71       75.96       
H           85.74       71.19       77.05       
H           88.34       67.7        69.87       
H           88.0814     66.38497    71.03097    
H           89.62       67.35       71.07       
N           87.92       68.38       71.82       
C           86.47       69.52       73.0        
C           86.73       69.03       71.76       
C           89.94       68.78       78.03       
C           89.18       69.85       78.38       
S           89.6        68.4        76.38       
H           87.45       70.9        77.67       
H           89.32       70.41       79.32       
C           88.18       70.18       77.46       
C           88.25       69.5        76.28       
C           93.97       67.44       79.27       
C           93.04       66.59       78.65       
C           93.39       68.65       79.49       
N           91.22       65.97       77.59       
N           92.13       65.0        77.59       
N           93.2        65.31       78.23       
C           92.11       63.75       76.79       
H           94.04       69.36       79.98       
H           91.8        69.97       79.46       
H           91.54621    63.77891    75.85758    
H           91.74       62.99       77.46       
H           93.131      63.41906    76.59988    
C           92.05       68.96       79.25       
C           91.76       67.01       78.15       
C           91.19       68.21       78.55       
H           46.57       14.07       90.83       
H           95.03       67.33       79.18       
