472

C           83.6        24.95       51.12       
C           84.34       25.37       52.21       
S           82.83       23.47       51.54       
H           84.6        24.72       54.35       
H           84.91       26.26       52.26       
C           84.01       24.58       53.43       
C           83.23       23.49       53.23       
C           84.8        27.93       47.4        
C           84.01       26.87       47.88       
N           85.37       28.51       48.55       
C           85.15       27.68       49.7        
C           83.04       25.83       47.48       
O           82.6        25.53       46.4        
O           85.69       27.96       50.77       
C           81.69       24.26       48.66       
C           85.59       29.98       48.8        
H           84.76406    30.46838    49.31711    
H           85.69       30.5        47.87       
H           86.54       30.01       49.31       
H           81.1        24.27       49.57       
H           81.88765    23.21528    48.42       
H           81.05       24.66       47.87       
N           82.88       25.01       48.68       
C           84.27       26.66       49.29       
C           83.58       25.54       49.77       
C           83.73       29.63       43.99       
C           85.04       30.02       44.31       
S           83.22       28.46       45.22       
H           86.48       29.71       45.91       
H           85.58       30.69       43.76       
C           85.54       29.46       45.5        
C           84.73       28.51       46.08       
C           80.87       31.28       41.12       
C           80.66       29.96       41.67       
C           82.07       31.8        41.44       
N           81.17       28.11       42.85       
N           79.96       28.09       42.42       
N           79.61       29.07       41.54       
C           79.13       26.89       42.17       
H           82.33       32.79       41.04       
H           83.84       31.84       42.61       
H           79.26706    26.12537    42.93463    
H           78.08       27.25       42.08       
H           79.38234    26.48626    41.18948    
C           82.96       31.22       42.37       
C           81.61       29.32       42.56       
C           82.77       30.05       43.0        
C           78.08       32.62       38.73       
C           78.72       33.67       39.27       
S           78.98       31.13       39.02       
H           80.48       34.05       40.58       
H           78.39       34.74       39.09       
C           79.87       33.31       40.07       
C           80.04       31.95       40.16       
C           74.28       34.78       36.67       
C           74.99       33.66       36.92       
N           75.05       35.9        36.96       
C           76.24       35.45       37.57       
C           74.9        32.25       36.79       
O           74.01       31.51       36.37       
O           76.96       36.29       38.01       
C           76.33       30.32       37.47       
C           75.13       37.2        36.3        
H           75.72055    37.10039    35.38927    
H           75.65       37.9        36.99       
H           74.16       37.54       35.97       
H           76.67       29.99       38.37       
H           76.94181    30.03252    36.61493    
H           75.43       29.75       37.29       
N           76.03       31.74       37.49       
C           76.17       33.94       37.64       
C           76.85       32.75       37.99       
C           70.5        35.18       35.51       
C           71.07       34.06       34.91       
S           71.78       36.01       36.33       
H           72.98       33.01       34.87       
H           70.39       33.37       34.32       
C           72.47       33.85       35.15       
C           73.01       34.86       35.96       
C           66.27       36.16       36.41       
C           66.78       34.81       36.36       
C           67.32       37.06       36.31       
N           68.3        33.12       36.05       
N           67.01       32.71       36.2        
N           66.1        33.6        36.48       
C           66.51       31.45       35.64       
H           67.13       38.12       36.22       
H           69.41       37.65       35.81       
H           67.32036    30.98195    35.08113    
H           66.17       30.8        36.43       
H           65.65498    31.67427    35.00224    
C           68.7        36.79       36.05       
C           68.13       34.48       36.12       
C           69.12       35.49       35.87       
C           62.43       36.84       35.9        
C           62.97       37.96       36.4        
S           63.67       35.59       35.82       
H           64.95       38.64       37.15       
H           62.4        38.87       36.7        
C           64.4        37.85       36.71       
C           64.89       36.6        36.49       
C           57.94       38.14       34.86       
C           58.88       37.19       34.95       
N           58.47       39.24       35.52       
C           59.88       39.11       35.64       
C           59.12       35.77       34.69       
O           58.42       34.84       34.26       
O           60.61       40.0        35.98       
C           60.95       34.17       34.87       
C           57.87       40.29       36.3        
H           57.849      41.17916    35.66988    
H           56.92       39.96       36.72       
H           58.6        40.41       37.14       
H           61.69       33.99       35.66       
H           61.39726    33.80083    33.94708    
H           60.12       33.56       35.18       
N           60.5        35.55       34.94       
C           60.09       37.71       35.39       
C           61.11       36.75       35.36       
C           54.41       38.18       33.17       
C           55.16       37.21       32.7        
S           55.36       39.0        34.31       
H           57.18       36.31       32.87       
H           54.77       36.5        32.0        
C           56.48       37.05       33.24       
C           56.75       38.07       34.12       
C           50.07       39.04       32.48       
C           50.81       39.77       33.39       
C           50.86       38.16       31.73       
N           52.66       40.45       34.51       
N           51.55       41.1        34.77       
N           50.39       40.7        34.3        
C           51.6        42.05       35.85       
H           50.44       37.75       30.79       
H           52.78       37.29       31.26       
H           52.64073    42.3713     35.89191    
H           50.87       42.82       35.67       
H           51.30193    41.53902    36.76551    
C           52.22       37.91       32.0        
C           52.24       39.53       33.6        
C           53.01       38.49       32.94       
C           46.28       38.32       31.96       
C           46.33       39.72       32.24       
S           47.82       37.65       31.71       
H           48.05       41.05       32.88       
H           45.45       40.36       32.25       
C           47.73       40.07       32.53       
C           48.66       39.1        32.22       
C           41.8        36.99       33.14       
C           42.96       36.79       32.4        
N           42.09       38.2        33.83       
C           43.41       38.66       33.54       
C           43.58       35.81       31.52       
O           43.17       34.75       31.12       
O           43.79       39.72       33.99       
C           45.92       35.03       31.34       
C           41.35       38.92       34.87       
H           41.80845    38.65496    35.82272    
H           40.31       38.65       34.9        
H           41.41       39.96       34.65       
H           46.67       35.21       32.02       
H           46.39835    34.97372    30.36219    
H           45.45       34.04       31.59       
N           44.95       36.13       31.57       
C           43.98       37.72       32.66       
C           45.15       37.44       32.04       
C           38.24       35.12       33.67       
C           39.0        34.37       32.82       
S           39.17       36.48       34.21       
H           41.06       34.36       32.06       
H           38.67       33.47       32.39       
C           40.3        34.9        32.6        
C           40.56       36.15       33.22       
C           34.6        34.25       35.89       
C           35.43       33.25       35.31       
C           35.08       35.48       35.63       
N           37.11       32.28       34.12       
N           36.18       31.42       34.49       
N           35.2        31.96       35.29       
C           36.39       29.96       34.29       
H           34.36       36.31       35.78       
H           36.41       36.79       34.67       
H           37.12985    29.82612    33.50083    
H           36.73       29.56       35.2        
H           35.44993    29.41875    34.18317    
C           36.25       35.74       34.94       
C           36.59       33.44       34.56       
C           37.02       34.76       34.39       
C           31.17       34.25       37.94       
C           31.27       33.17       37.09       
S           32.58       35.26       37.62       
H           32.71       32.3        35.71       
H           30.54       32.45       36.95       
C           32.51       33.09       36.42       
C           33.36       34.13       36.56       
C           26.57       34.48       39.21       
C           27.84       34.88       39.44       
N           26.62       33.48       38.26       
C           27.93       33.24       37.84       
C           28.61       35.88       40.19       
O           28.41       36.81       41.06       
O           28.16       32.43       36.98       
C           31.05       36.08       40.48       
C           25.71       32.31       38.29       
H           26.11967    31.49772    38.89038    
H           25.56       31.98       37.24       
H           24.75       32.56       38.76       
H           31.95       36.32       39.86       
H           31.25441    35.37187    41.28304    
H           30.73       37.04       40.77       
N           29.95       35.63       39.63       
C           28.73       34.16       38.57       
C           29.97       34.71       38.62       
C           23.7        35.94       41.47       
C           23.15       35.69       40.19       
S           25.38       35.65       41.49       
H           23.89       34.76       38.39       
H           22.13       35.99       39.97       
C           24.16       35.11       39.38       
C           25.43       35.03       39.91       
C           21.52       37.74       44.83       
C           21.08       37.96       43.53       
C           22.76       37.04       44.95       
N           21.1        37.7        41.3        
N           20.02       38.33       41.78       
N           20.03       38.65       43.04       
C           18.81       38.57       40.89       
H           23.26       36.92       45.89       
H           24.4        36.08       44.04       
H           19.04322    38.33678    39.8511     
H           18.08       37.91       41.37       
H           18.47919    39.60557    40.96911    
C           23.43       36.48       43.87       
C           21.8        37.4        42.47       
C           22.99       36.64       42.59       
C           20.18       38.92       48.39       
C           19.14       39.18       47.47       
S           21.58       38.42       47.52       
H           18.87       38.88       45.35       
H           18.16       39.61       47.73       
C           19.51       38.82       46.16       
C           20.76       38.32       45.99       
C           21.06       38.47       53.03       
C           20.68       39.26       52.02       
N           21.78       37.44       52.46       
C           21.55       37.38       51.05       
C           19.93       40.48       51.75       
O           19.52       41.34       52.45       
O           21.92       36.51       50.27       
C           19.14       41.6        49.68       
C           22.56       36.35       53.11       
H           23.53843    36.2811     52.63457    
H           21.99       35.43       53.05       
H           22.76       36.41       54.19       
H           18.24       41.35       49.08       
H           19.77182    42.10258    48.94766    
H           18.84       42.17       50.5        
N           19.78       40.46       50.32       
C           20.87       38.62       50.74       
C           20.19       39.26       49.76       
C           21.5        40.04       56.66       
C           21.3        38.7        56.74       
S           21.67       40.42       55.02       
H           21.03       37.03       55.41       
H           21.23       38.25       57.73       
C           21.21       38.08       55.47       
C           21.17       38.92       54.41       
C           22.29       42.93       59.83       
C           21.56       43.25       58.66       
C           22.73       41.65       59.79       
N           20.74       42.99       56.53       
N           20.43       44.18       57.11       
N           20.89       44.38       58.38       
C           19.58       45.09       56.41       
H           23.24       41.37       60.63       
H           22.8        39.66       59.07       
H           19.51631    44.8211     55.35561    
H           18.61       45.1        56.9        
H           20.05242    46.07063    56.46726    
C           22.54       40.69       58.79       
C           21.49       42.39       57.48       
C           21.87       40.99       57.62       
C           22.1        45.16       63.13       
C           23.42       44.89       62.85       
S           21.03       44.36       61.97       
H           24.54       43.84       61.27       
H           24.22       45.44       63.28       
C           23.55       44.07       61.67       
C           22.4        43.77       61.02       
C           22.49       47.06       67.54       
C           21.72       46.76       66.49       
N           23.71       46.54       67.25       
C           23.8        46.01       65.9        
C           20.29       46.65       66.09       
O           19.18       46.89       66.52       
O           24.8        45.52       65.44       
C           19.14       45.95       63.91       
C           24.83       46.33       68.1        
H           25.48838    47.19095    67.98424    
H           24.58       46.24       69.13       
H           25.49       45.52       67.82       
H           19.04       44.96       63.61       
H           18.97882    46.68998    63.12606    
H           18.3        46.09       64.61       
N           20.38       46.15       64.71       
C           22.46       46.15       65.44       
C           21.68       45.8        64.37       
C           21.92       48.99       71.03       
C           20.74       48.63       70.48       
S           23.12       48.24       70.06       
H           19.84       47.62       68.78       
H           19.81       48.82       70.97       
C           20.77       47.95       69.26       
C           22.07       47.6        68.8        
C           23.06       51.07       74.71       
C           21.73       50.99       74.36       
C           23.91       50.5        73.85       
N           20.03       50.23       73.2        
N           19.66       50.97       74.23       
N           20.61       51.45       74.99       
C           18.5        51.82       74.02       
H           24.98       50.66       74.0        
H           24.32       49.37       72.02       
H           17.69911    51.17063    73.66645    
H           18.17       52.22       75.02       
H           18.7983     52.65098    73.38079    
C           23.57       49.77       72.63       
C           21.34       50.24       73.15       
C           22.22       49.6        72.29       
C           24.71       53.5        77.48       
C           23.63       54.13       76.9        
S           24.8        51.9        76.78       
H           21.94       53.6        75.52       
H           23.27       55.05       77.3        
C           22.88       53.35       76.01       
C           23.51       52.12       75.69       
C           25.82       56.82       80.7        
C           26.16       55.64       80.12       
N           24.91       57.46       79.87       
C           24.74       56.65       78.67       
C           27.04       54.5        80.27       
O           28.05       54.27       80.95       
O           24.14       57.08       77.66       
C           27.08       52.19       79.26       
C           24.18       58.69       80.0        
H           23.14602    58.42271    80.21805    
H           24.69       59.35       80.71       
H           24.16       59.25       79.07       
H           27.13       51.69       78.27       
H           26.45357    51.59172    79.92162    
H           28.14       52.2        79.6        
N           26.58       53.56       79.22       
C           25.41       55.41       78.9        
C           25.56       54.11       78.48       
C           26.31       58.22       84.38       
C           27.5        57.64       84.02       
S           25.23       58.26       83.07       
H           28.16       56.33       82.3        
H           28.36       57.54       84.67       
C           27.35       56.94       82.74       
C           26.25       57.38       81.99       
C           25.48       59.32       88.54       
C           26.76       59.6        87.9        
C           24.55       58.89       87.64       
N           28.39       59.48       86.37       
N           28.76       59.92       87.59       
N           27.86       59.89       88.54       
C           30.14       60.34       87.93       
H           23.49       58.85       88.0        
H           24.01       58.13       85.73       
H           30.79877    60.23488    87.06799    
H           30.03       61.37       88.3        
H           30.5316     59.78272    88.78099    
C           24.8        58.66       86.24       
C           27.07       59.28       86.55       
C           26.05       58.8        85.67       
C           24.06       59.7        92.18       
C           25.45       59.74       92.29       
S           23.59       59.28       90.56       
H           27.03       60.22       90.77       
H           25.92       60.07       93.21       
C           26.04       59.8        91.01       
C           25.2        59.48       89.96       
C           19.97       60.14       94.47       
C           21.31       59.86       94.57       
N           19.76       60.71       93.24       
C           20.94       60.64       92.42       
C           22.32       59.17       95.38       
O           22.18       58.63       96.41       
O           20.88       61.19       91.36       
C           24.35       57.93       94.64       
C           18.5        61.08       92.62       
H           18.06478    60.3202     91.97085    
H           18.68       61.97       92.12       
H           17.81       61.28       93.42       
H           25.33       58.31       94.36       
H           24.04981    57.04339    94.08151    
H           24.38       57.78       95.68       
N           23.41       59.03       94.48       
C           21.97       60.03       93.24       
C           23.21       59.69       93.3        
C           17.09       59.08       97.0        
C           18.22       59.34       97.71       
S           17.43       59.38       95.34       
H           20.31       59.86       97.36       
H           18.17       59.28       98.78       
C           19.34       59.73       96.9        
C           19.04       59.98       95.56       
C           13.09       57.92       98.61       
C           13.5        57.61       97.28       
C           14.03       58.66       99.29       
N           14.75       57.55       95.47       
N           13.71       56.83       95.33       
N           12.83       56.95       96.32       
C           13.3        56.15       94.08       
H           13.84       59.02       100.29      
H           15.94       59.75       99.39       
H           14.0564     56.3321     93.31659    
H           13.13       55.11       94.39       
H           12.32713    56.545      93.78741    
C           15.31       59.13       98.7        
C           14.74       58.02       96.72       
C           15.76       58.8        97.48       
C           9.69        56.72       100.39      
C           10.46       55.63       100.04      
S           10.62       58.17       100.05      
H           12.12       55.27       98.73       
H           9.97        54.61       100.02      
C           11.54       55.96       99.23       
C           11.87       57.3        99.24       
C           6.2         54.7        103.07      
C           6.62        55.75       102.29      
N           7.29        53.86       103.1       
C           8.33        54.27       102.19      
C           6.24        57.06       101.72      
O           5.13        57.56       101.61      
O           9.32        53.55       101.97      
C           7.35        58.93       100.55      
C           7.68        52.89       104.12      
H           8.43261     53.44052    104.68446   
H           7.98        51.95       103.67      
H           6.84        52.7        104.8       
H           7.77        58.94       99.48       
H           7.89349     59.64016    101.1732    
H           6.38        59.19       100.33      
N           7.34        57.52       101.03      
C           7.96        55.56       101.79      
C           8.45        56.7        101.15      
C           2.88        54.08       105.2       
C           3.08        55.39       104.99      
S           4.3         53.23       104.58      
H           4.59        56.72       104.06      
H           2.34        56.1        105.29      
C           4.24        55.75       104.23      
C           5.02        54.68       103.95      
C           -0.17       52.02       107.63      
C           0.37        51.49       106.48      
C           0.33        53.33       107.91      
N           1.45        51.49       104.46      
N           0.75        50.39       104.71      
N           0.02        50.34       105.83      
C           0.52        49.35       103.74      
H           -0.05       53.91       108.77      
H           1.56        55.03       107.37      
H           0.68754     48.38666    104.22167   
H           1.22        49.47       102.88      
H           -0.47424    49.3428     103.29331   
C           1.3         54.0        107.09      
C           1.29        52.16       105.64      
C           1.84        53.43       105.97      
H           83.42       22.59       53.74       
H           -1.19       51.72       107.79      
