472

C           94.26       80.09       25.27       
C           95.16       79.22       25.69       
S           93.63       79.44       23.8        
H           96.19       77.42       25.09       
H           95.6        79.28       26.7        
C           95.43       78.14       24.82       
C           94.61       78.01       23.77       
C           93.59       83.28       28.87       
C           93.3        82.87       27.59       
N           94.59       82.48       29.3        
C           95.0        81.53       28.3        
C           92.37       83.07       26.56       
O           91.47       83.88       26.36       
O           95.82       80.67       28.52       
C           92.1        82.14       24.28       
C           94.87       82.04       30.67       
H           95.91882    82.20299    30.91803    
H           94.6        81.01       30.84       
H           94.31       82.72       31.42       
H           92.0        81.21       23.76       
H           92.59624    82.86689    23.63698    
H           91.06       82.47       24.45       
N           92.7        82.03       25.6        
C           94.14       81.79       27.2        
C           93.78       81.31       25.93       
C           92.16       86.11       31.36       
C           91.24       85.76       30.37       
S           93.55       85.1        31.0        
H           91.14       84.43       28.57       
H           90.28       86.29       30.19       
C           91.69       84.83       29.39       
C           92.94       84.29       29.63       
C           92.49       89.25       34.51       
C           91.4        89.15       33.61       
C           93.57       88.39       34.1        
N           90.12       88.37       31.93       
N           89.54       89.34       32.63       
N           90.22       89.87       33.6        
C           88.24       89.84       32.31       
H           94.54       88.28       34.53       
H           94.3        86.83       32.87       
H           87.73906    89.16973    31.61151    
H           87.69       89.9        33.25       
H           88.24719    90.86117    31.92886    
C           93.4        87.41       33.07       
C           91.31       88.18       32.54       
C           92.27       87.16       32.35       
C           93.17       91.44       37.7        
C           92.34       92.12       36.92       
S           93.76       90.07       36.81       
H           91.26       91.7        35.04       
H           91.84       93.03       37.21       
C           92.03       91.43       35.71       
C           92.59       90.24       35.59       
C           92.55       93.28       41.93       
C           93.36       92.58       41.15       
N           91.55       93.83       41.21       
C           91.65       93.34       39.91       
C           94.42       91.56       41.2        
O           95.06       91.04       42.15       
O           90.7        93.42       39.17       
C           95.43       90.0        39.56       
C           91.05       95.17       41.37       
H           91.5985     95.83248    40.7004     
H           91.11       95.5        42.43       
H           90.04       95.13       41.12       
H           95.75       90.02       38.5        
H           94.91327    89.06852    39.79117    
H           96.3        90.07       40.2        
N           94.54       91.11       39.82       
C           92.86       92.6        39.83       
C           93.56       91.71       39.06       
C           93.98       94.56       45.38       
C           92.66       94.59       45.43       
S           94.43       93.81       43.88       
H           90.88       94.22       44.17       
H           92.01       95.02       46.24       
C           91.99       94.07       44.27       
C           92.83       93.54       43.33       
C           96.64       95.74       48.8        
C           97.14       95.16       47.65       
C           95.22       95.82       48.77       
N           97.1        94.23       45.63       
N           98.28       94.29       46.16       
N           98.41       94.76       47.39       
C           99.42       93.63       45.55       
H           94.77       96.29       49.64       
H           93.34       95.71       47.79       
H           99.12137    93.07441    44.66105    
H           100.26      94.29       45.35       
H           99.78804    92.92278    46.2933     
C           94.37       95.47       47.67       
C           96.31       94.83       46.53       
C           94.85       94.99       46.49       
C           99.2        96.05       51.86       
C           98.02       96.79       52.14       
S           99.02       95.53       50.23       
H           96.06       97.01       51.33       
H           97.85       97.31       53.08       
C           96.98       96.61       51.21       
C           97.38       96.09       50.01       
C           102.25      96.94       55.61       
C           102.0       96.41       54.34       
N           101.06      97.62       55.96       
C           100.13      97.52       54.94       
C           102.58      95.54       53.36       
O           103.58      94.94       53.35       
O           98.95       97.89       55.18       
C           101.69      94.19       51.44       
C           100.75      98.52       57.11       
H           100.85652   99.54255    56.74785    
H           99.68       98.45       57.29       
H           101.35      98.29       58.05       
H           101.28      94.17       50.45       
H           101.2772    93.28331    51.88229    
H           102.75      94.19       51.3        
N           101.56      95.31       52.36       
C           100.7       96.73       53.86       
C           100.43      96.09       52.63       
C           105.44      95.68       57.38       
C           105.3       96.97       57.68       
S           104.08      95.16       56.37       
H           103.82      98.55       57.34       
H           105.9       97.45       58.4        
C           104.09      97.55       57.18       
C           103.48      96.73       56.29       
C           108.19      92.61       59.17       
C           108.44      94.03       59.18       
C           107.02      92.34       58.42       
N           108.02      96.2        58.91       
N           109.13      95.93       59.61       
N           109.49      94.68       59.8        
C           109.98      96.98       60.16       
H           106.76      91.29       58.43       
H           105.3       92.91       57.12       
H           109.60064   97.91051    59.73769    
H           109.93      96.87       61.3        
H           111.02043   96.77613    59.90692    
C           106.19      93.25       57.67       
C           107.5       94.97       58.61       
C           106.36      94.61       57.8        
C           109.55      90.21       62.01       
C           109.45      89.56       60.9        
S           109.0       91.88       61.64       
H           108.97      89.8        58.74       
H           109.49      88.43       60.95       
C           109.13      90.26       59.73       
C           108.9       91.59       59.94       
C           108.78      86.99       65.5        
C           109.05      88.27       65.14       
N           108.64      86.27       64.36       
C           109.05      87.01       63.23       
C           109.08      89.57       65.73       
O           108.92      89.96       66.91       
O           108.98      86.44       62.13       
C           109.95      91.71       64.98       
C           107.6       85.33       64.13       
H           106.68799   85.84915    63.83535    
H           107.31      84.89       65.07       
H           107.74      84.68       63.26       
H           109.13      92.26       65.46       
H           110.90828   91.71732    65.49937    
H           110.11      92.23       64.0        
N           109.53      90.38       64.6        
C           109.27      88.35       63.7        
C           109.51      89.68       63.38       
C           107.99      85.25       68.94       
C           107.45      86.45       68.96       
S           108.61      84.95       67.42       
H           107.52      88.28       67.59       
H           107.03      86.9        69.88       
C           107.75      87.21       67.75       
C           108.29      86.5        66.75       
C           108.09      82.0        71.88       
C           107.17      83.07       71.98       
C           108.86      82.04       70.7        
N           106.28      85.06       71.49       
N           105.73      84.55       72.62       
N           106.31      83.35       72.96       
C           104.31      84.71       72.79       
H           109.62      81.29       70.49       
H           109.5       82.97       68.88       
H           103.94518   85.41819    72.04604    
H           103.89      83.69       72.61       
H           104.07934   84.89872    73.83846    
C           108.86      83.11       69.71       
C           107.26      84.16       71.06       
C           108.01      84.16       69.88       
C           109.19      79.65       74.85       
C           109.43      79.06       73.66       
S           108.52      81.19       74.52       
H           109.03      79.46       71.46       
H           109.81      78.06       73.55       
C           108.96      79.79       72.5        
C           108.27      80.92       72.8        
C           108.84      79.56       79.6        
C           108.78      78.86       78.41       
N           109.0       80.9        79.28       
C           109.13      81.12       77.88       
C           108.67      77.52       77.82       
O           108.6       76.37       78.3        
O           109.39      82.12       77.32       
C           109.25      76.46       75.59       
C           108.47      82.06       80.03       
H           107.59273   82.48449    79.54184    
H           109.3       82.74       80.22       
H           108.18      81.69       80.97       
H           110.14      76.52       74.99       
H           108.38802   76.129      75.01075    
H           109.49      75.63       76.3        
N           108.9       77.68       76.41       
C           109.11      79.71       77.35       
C           109.17      79.05       76.15       
C           109.34      78.4        83.29       
C           108.93      77.43       82.53       
S           109.45      79.83       82.36       
H           108.3       77.05       80.52       
H           108.83      76.42       82.81       
C           108.59      77.79       81.25       
C           108.81      79.09       80.95       
C           111.12      77.91       87.32       
C           110.21      76.93       86.8        
C           111.13      79.06       86.51       
N           108.78      76.08       85.32       
N           109.0       75.36       86.42       
N           109.89      75.72       87.32       
C           108.31      74.09       86.66       
H           111.67      79.89       86.92       
H           110.81      80.16       84.64       
H           107.5055    74.06919    85.92485    
H           109.01      73.27       86.55       
H           107.93351   74.09       87.68292    
C           110.51      79.29       85.22       
C           109.51      77.19       85.58       
C           109.72      78.34       84.7        
C           113.45      77.68       90.55       
C           112.46      76.77       90.74       
S           113.14      78.63       89.15       
H           110.72      76.19       89.57       
H           112.44      75.97       91.46       
C           111.54      76.82       89.69       
C           111.79      77.73       88.64       
C           117.85      79.0        91.69       
C           116.7       78.37       92.07       
N           117.75      79.33       90.38       
C           116.42      79.07       89.91       
C           116.15      77.59       93.17       
O           116.47      77.39       94.31       
O           116.07      79.4        88.74       
C           113.79      76.99       93.81       
C           118.7       79.59       89.34       
H           119.00563   78.62945    88.92522    
H           119.73      79.9        89.71       
H           118.33      80.27       88.57       
H           113.08      76.29       93.45       
H           113.14414   77.8133     94.11519    
H           114.37      76.53       94.6        
N           114.75      77.49       92.78       
C           115.72      78.45       91.03       
C           114.57      77.88       91.45       
C           121.39      79.31       93.52       
C           120.45      78.65       94.28       
S           120.51      79.87       92.12       
H           118.45      77.97       94.27       
H           120.67      78.19       95.23       
C           119.19      78.55       93.77       
C           119.03      79.05       92.53       
C           125.75      79.12       93.66       
C           125.08      79.99       92.87       
C           124.94      78.45       94.52       
N           123.43      81.17       91.8        
N           124.62      81.49       91.36       
N           125.6       80.9        91.97       
C           124.78      82.0        90.01       
H           125.35      77.63       95.15       
H           123.0       77.95       95.19       
H           123.8       82.29544    89.63529    
H           125.4       82.89       90.08       
H           125.25395   81.23756    89.39181    
C           123.56      78.63       94.54       
C           123.67      80.17       92.81       
C           122.84      79.44       93.68       
C           129.35      77.56       93.59       
C           129.38      78.7        92.8        
S           127.75      77.37       94.19       
H           128.02      80.38       92.18       
H           130.31      78.93       92.29       
C           128.17      79.48       92.77       
C           127.17      78.94       93.61       
C           131.3       73.68       95.49       
C           131.31      74.56       94.48       
N           130.4       74.1        96.46       
C           129.58      75.21       95.94       
C           132.09      74.96       93.32       
O           133.06      74.45       92.75       
O           128.63      75.64       96.5        
C           131.69      76.58       91.49       
C           130.41      73.98       97.97       
H           129.55885   73.43439    98.37739    
H           131.37      73.57       98.24       
H           130.46      74.98       98.39       
H           131.63      77.61       91.4        
H           131.0386    76.18916    90.70832    
H           132.77      76.33       91.35       
N           131.4       76.14       92.84       
C           130.31      75.54       94.7        
C           130.29      76.46       93.72       
C           133.26      70.31       96.0        
C           134.08      71.19       95.3        
S           131.89      71.2        96.53       
H           133.99      73.25       94.45       
H           135.04      70.84       94.91       
C           133.5       72.49       95.07       
C           132.28      72.65       95.69       
C           134.24      66.47       97.94       
C           132.93      66.86       97.61       
C           135.14      67.34       97.39       
N           131.24      67.95       96.75       
N           130.84      66.87       97.35       
N           131.79      66.17       97.91       
C           129.48      66.48       97.36       
H           136.23      67.1        97.48       
H           135.69      69.21       96.42       
H           129.11377   66.61184    96.34187    
H           129.38      65.43       97.65       
H           128.93011   67.03685    98.11871    
C           134.84      68.6        96.71       
C           132.59      68.1        96.99       
C           133.55      68.98       96.52       
C           135.7       63.89       100.56      
C           134.56      63.38       100.08      
S           136.03      65.39       99.76       
H           132.99      63.91       98.64       
H           134.14      62.42       100.42      
C           133.93      64.17       99.07       
C           134.58      65.34       98.78       
C           135.69      62.2        105.06      
C           136.47      62.67       103.99      
N           134.41      61.87       104.52      
C           134.32      62.25       103.15      
C           137.74      63.26       103.67      
O           138.77      63.48       104.3       
O           133.3       62.18       102.47      
C           138.67      64.39       101.53      
C           133.17      61.76       105.22      
H           132.94204   60.70569    105.37672   
H           133.16      62.3        106.11      
H           132.32      62.07       104.65      
H           138.37      65.37       101.22      
H           139.06311   63.78999    100.7093    
H           139.48      64.57       102.27      
N           137.56      63.76       102.34      
C           135.66      62.78       102.84      
C           136.28      63.51       101.89      
C           136.32      62.22       108.98      
C           137.47      62.26       108.34      
S           135.03      62.01       107.9       
H           138.23      62.15       106.25      
H           138.4       62.42       108.86      
C           137.34      62.17       106.92      
C           136.11      62.06       106.45      
C           135.46      63.24       113.12      
C           136.7       63.5        112.56      
C           134.73      62.36       112.34      
N           138.3       63.41       111.04      
N           138.62      64.05       112.13      
N           137.7       64.18       113.11      
C           139.99      64.49       112.34      
H           133.72      62.13       112.6       
H           134.38      61.41       110.42      
H           140.6412    63.64769    112.10642   
H           140.19      65.34       111.73      
H           140.09918   64.86121    113.35901   
C           135.08      62.03       111.0       
C           137.0       63.16       111.23      
C           136.1       62.59       110.36      
C           134.65      64.71       116.77      
C           133.51      64.5        116.02      
S           135.98      63.96       115.85      
H           132.95      63.8        114.05      
H           132.55      64.66       116.45      
C           133.74      63.97       114.7       
C           135.03      63.81       114.38      
C           132.92      66.02       121.08      
C           133.98      65.95       120.14      
N           131.9       65.33       120.54      
C           132.19      64.88       119.21      
C           135.36      66.33       120.04      
O           136.2       66.9        120.73      
O           131.36      64.31       118.56      
C           137.01      66.03       118.29      
C           130.56      65.03       121.02      
H           130.46139   63.98758    121.32287   
H           129.86      65.14       120.19      
H           130.23      65.72       121.84      
H           137.05      66.19       117.16      
H           137.69678   65.22286    118.54489   
H           137.48      66.92       118.68      
N           135.67      65.8        118.73      
C           133.58      65.21       119.01      
C           134.68      65.14       118.09      
C           132.95      69.1        123.67      
C           132.23      68.04       124.25      
S           133.51      68.53       122.12      
H           131.67      65.95       123.62      
H           131.72      68.11       125.19      
C           132.17      66.89       123.35      
C           132.87      66.92       122.17      
C           133.48      73.46       124.67      
C           133.01      72.57       125.66      
C           133.86      72.83       123.52      
N           132.38      70.54       126.5       
N           132.2       71.56       127.38      
N           132.53      72.74       126.97      
C           131.6       71.41       128.66      
H           134.26      73.35       122.63      
H           133.93      71.08       122.26      
H           130.9994    70.50211    128.60413   
H           132.28      71.36       129.49      
H           130.906     72.23279    128.83171   
C           133.67      71.39       123.27      
C           132.88      71.12       125.38      
C           133.21      70.48       124.13      
C           133.52      77.3        125.78      
C           133.95      77.26       124.5       
S           133.21      75.65       126.4       
H           134.39      75.58       123.02      
H           134.33      78.13       124.04      
C           134.0       75.9        123.97      
C           133.61      74.93       124.89      
C           133.15      82.0        126.96      
C           132.85      80.7        127.15      
N           133.93      81.98       125.81      
C           134.25      80.65       125.34      
C           131.96      79.88       127.98      
O           131.05      80.04       128.77      
O           134.94      80.38       124.38      
C           131.84      77.51       128.56      
C           134.6       83.1        125.18      
H           135.54031   83.28083    125.70079   
H           133.96      83.93       125.2       
H           134.77      83.0        124.13      
H           132.58      76.75       128.77      
H           130.87443   77.06655    128.31682   
H           131.7       77.92       129.53      
N           132.27      78.51       127.61      
C           133.51      79.81       126.24      
C           133.24      78.49       126.6       
C           131.89      85.21       129.03      
C           130.96      84.24       128.94      
S           133.29      84.58       128.24      
H           130.6       82.22       128.07      
H           130.07      84.41       129.54      
C           131.33      83.07       128.25      
C           132.54      83.14       127.63      
C           131.46      89.05       131.05      
C           132.76      88.5        130.8       
C           130.42      88.31       130.72      
N           134.26      87.04       130.06      
N           134.78      88.07       130.74      
N           133.96      88.94       131.27      
C           136.23      88.16       130.85      
H           129.44      88.77       130.82      
H           129.75      86.46       129.98      
H           136.59278   88.92823    130.16713   
H           136.66      87.25       130.6       
H           136.53883   88.40707    131.86572   
C           130.64      87.09       130.09      
C           132.97      87.32       130.02      
C           131.83      86.5        129.69      
H           94.27       77.09       23.3        
H           131.34      89.93       131.7       
