472

C           83.38       84.37       68.18       
C           82.33       85.21       67.97       
S           82.65       82.89       68.67       
H           80.17       85.33       68.29       
H           82.54       86.23       67.64       
C           81.05       84.73       68.45       
C           81.02       83.4        68.75       
C           87.08       86.09       65.69       
C           86.59       85.23       66.64       
N           86.12       87.12       65.51       
C           85.0        86.83       66.39       
C           86.94       83.98       67.29       
O           87.84       83.17       67.22       
O           84.01       87.61       66.32       
C           85.9        82.88       69.19       
C           86.41       88.48       65.26       
H           86.56971    88.98816    66.21098    
H           85.76       88.95       64.48       
H           87.39       88.56       64.81       
H           85.18       82.11       69.23       
H           85.89297    83.53399    70.06198    
H           86.85       82.5        69.04       
N           85.75       83.64       67.96       
C           85.21       85.54       66.99       
C           84.72       84.55       67.75       
C           90.59       85.67       64.12       
C           89.77       86.45       63.29       
S           89.81       85.38       65.56       
H           87.6        87.03       63.22       
H           90.03       86.73       62.26       
C           88.41       86.56       63.74       
C           88.28       86.0        64.97       
C           94.98       85.09       64.06       
C           94.15       84.23       64.79       
C           94.32       86.01       63.26       
N           92.16       83.35       65.38       
N           93.25       82.71       65.9        
N           94.43       83.21       65.58       
C           93.16       81.65       66.89       
H           94.9        86.74       62.64       
H           92.58       86.98       62.58       
H           92.10273    81.39455    66.96096    
H           93.74       80.77       66.68       
H           93.52145    82.06106    67.8326     
C           92.9        86.17       63.23       
C           92.74       84.33       64.69       
C           92.02       85.4        64.01       
C           98.95       85.27       63.88       
C           98.58       84.31       64.79       
S           97.47       85.86       63.13       
H           96.76       83.59       65.8        
H           99.33       83.73       65.41       
C           97.16       84.15       64.97       
C           96.42       84.94       64.16       
C           103.76      85.69       64.31       
C           102.61      86.06       63.63       
N           103.43      84.68       65.19       
C           102.06      84.3        65.15       
C           102.02      87.01       62.67       
O           102.52      87.93       62.0        
O           101.58      83.5        65.88       
C           100.08      86.5        61.19       
C           104.2       84.15       66.41       
H           104.06805   84.79585    67.27808    
H           105.22      84.09       66.22       
H           103.83      83.18       66.69       
H           98.97       86.63       61.15       
H           100.37593   85.56169    60.72085    
H           100.6       87.28       60.7        
N           100.6       86.6        62.58       
C           101.53      85.27       64.14       
C           100.31      85.7        63.54       
C           107.38      87.5        64.51       
C           106.43      88.4        64.18       
S           106.6       85.96       64.59       
H           104.23      88.45       63.8        
H           106.63      89.44       64.15       
C           105.09      87.83       64.02       
C           104.98      86.52       64.41       
C           111.63      87.74       65.92       
C           110.77      88.86       65.86       
C           111.0       86.63       65.48       
N           108.86      90.05       65.59       
N           109.86      90.8        65.99       
N           110.99      90.16       66.27       
C           109.5       92.02       66.63       
H           111.57      85.69       65.57       
H           109.18      85.5        64.92       
H           108.86003   92.60492    65.96939    
H           109.01      91.89       67.62       
H           110.43597   92.54157    66.83005    
C           109.6       86.51       65.09       
C           109.4       88.79       65.48       
C           108.78      87.59       65.01       
C           115.26      87.07       67.17       
C           115.19      88.44       66.99       
S           113.8       86.32       66.64       
H           113.63      89.84       66.36       
H           115.96      89.13       67.26       
C           113.88      88.86       66.48       
C           113.05      87.8        66.27       
C           117.54      83.15       68.7        
C           117.52      84.52       68.61       
N           116.48      82.66       67.94       
C           115.66      83.69       67.44       
C           118.28      85.72       69.05       
O           119.25      85.85       69.83       
O           114.67      83.5        66.8        
C           117.7       88.05       69.25       
C           116.01      81.32       67.76       
H           115.2259    81.12767    68.49232    
H           115.67      81.21       66.77       
H           116.81      80.6        67.84       
H           116.74      88.55       69.42       
H           118.46142   88.70892    68.83268    
H           117.97      87.78       70.29       
N           117.5       86.82       68.53       
C           116.38      84.96       67.88       
C           116.38      86.35       67.83       
C           121.04      81.79       68.94       
C           120.3       81.1        69.81       
S           120.13      83.0        68.14       
H           118.21      80.9        70.24       
H           120.73      80.45       70.58       
C           118.97      81.43       69.74       
C           118.71      82.52       68.98       
C           125.22      81.08       67.45       
C           124.71      80.46       68.64       
C           124.22      81.89       66.89       
N           123.29      80.13       70.39       
N           124.45      79.49       70.55       
N           125.33      79.65       69.58       
C           124.59      78.35       71.47       
H           124.53      82.38       65.93       
H           122.37      82.9        66.86       
H           123.74312   78.371      72.1559     
H           124.44      77.44       70.98       
H           125.55459   78.28617    71.97357    
C           122.92      82.1        67.37       
C           123.37      80.76       69.19       
C           122.44      81.54       68.52       
C           128.42      80.64       65.22       
C           128.64      80.22       66.49       
S           126.83      81.24       65.11       
H           127.51      80.13       68.42       
H           129.63      79.96       66.85       
C           127.55      80.38       67.35       
C           126.46      80.86       66.77       
C           132.84      80.68       63.54       
C           131.5       80.84       63.26       
N           132.98      80.72       64.89       
C           131.75      80.84       65.6        
C           130.54      80.92       62.15       
O           130.75      80.96       60.99       
O           131.67      80.91       66.81       
C           128.09      81.55       62.04       
C           133.93      79.95       65.66       
H           133.67592   78.89013    65.67452    
H           133.97      80.47       66.65       
H           134.91      80.09       65.15       
H           127.47      82.31       62.56       
H           127.44592   80.69606    61.83013    
H           128.55      81.83       61.11       
N           129.25      81.16       62.83       
C           130.77      80.84       64.5        
C           129.44      80.89       64.21       
C           136.03      79.95       61.35       
C           135.21      80.77       60.7        
S           135.25      79.53       62.81       
H           133.33      81.78       60.79       
H           135.45      81.34       59.71       
C           134.0       81.04       61.28       
C           133.93      80.6        62.58       
C           139.85      78.18       60.69       
C           139.52      79.43       60.08       
C           138.83      77.59       61.45       
N           138.22      81.1        59.53       
N           139.44      81.14       58.92       
N           140.31      80.12       59.19       
C           139.65      82.13       57.86       
H           138.87      76.5        61.79       
H           136.85      77.72       62.16       
H           138.78463   82.79175    57.89636    
H           140.54      82.71       58.14       
H           139.73455   81.5452     56.94405    
C           137.62      78.21       61.61       
C           138.3       80.02       60.32       
C           137.36      79.47       61.13       
C           143.41      76.69       61.48       
C           143.36      77.2        60.21       
S           141.8       76.83       62.14       
H           142.07      78.22       58.85       
H           144.24      77.4        59.66       
C           142.14      77.77       59.79       
C           141.14      77.56       60.67       
C           148.11      75.93       62.34       
C           146.78      75.65       62.71       
N           148.11      76.74       61.23       
C           146.78      77.02       60.76       
C           145.92      74.91       63.57       
O           146.2       74.21       64.54       
O           146.59      77.86       59.91       
C           143.59      74.84       64.12       
C           149.16      77.6        60.74       
H           149.48992   77.20553    59.77893    
H           149.93      77.62       61.48       
H           148.8       78.64       60.62       
H           142.55      74.51       63.78       
H           143.61121   75.61764    64.8835     
H           143.88      73.98       64.65       
N           144.6       75.15       63.13       
C           145.9       76.36       61.79       
C           144.59      76.2        62.19       
C           151.56      74.57       63.51       
C           150.64      74.33       64.56       
S           150.8       75.26       62.15       
H           148.49      74.76       64.81       
H           150.79      73.82       65.52       
C           149.33      74.85       64.21       
C           149.32      75.45       62.96       
C           155.76      73.12       62.89       
C           155.14      73.16       64.16       
C           154.92      73.69       61.94       
N           153.53      73.59       65.68       
N           154.58      72.95       66.16       
N           155.52      72.68       65.33       
C           154.97      73.27       67.5        
H           155.33      73.8        60.94       
H           153.22      74.87       61.37       
H           154.08516   73.65533    68.00664    
H           155.39      72.38       67.98       
H           155.80148   73.97246    67.44266    
C           153.67      74.34       62.16       
C           153.79      73.69       64.39       
C           153.01      74.27       63.33       
C           159.16      71.17       62.47       
C           158.73      71.55       61.18       
S           158.18      71.97       63.63       
H           157.05      72.67       60.37       
H           159.13      71.17       60.33       
C           157.52      72.29       61.26       
C           157.01      72.5        62.5        
C           162.52      69.0        65.1        
C           162.05      69.34       63.84       
N           161.57      69.41       66.0        
C           160.4       70.03       65.4        
C           162.29      69.21       62.47       
O           163.3       68.81       61.81       
O           159.4       70.28       66.07       
C           160.93      69.44       60.41       
C           161.57      69.16       67.46       
H           161.75259   70.12405    67.93472    
H           162.32      68.52       67.75       
H           160.68      68.73       67.84       
H           160.88      70.31       59.76       
H           160.07935   68.7752     60.25988    
H           161.75      68.89       60.12       
N           161.16      69.88       61.75       
C           160.74      70.03       63.98       
C           160.3       70.39       62.72       
C           165.62      66.74       65.23       
C           165.53      67.38       66.44       
S           164.3       67.14       64.19       
H           164.25      69.07       67.26       
H           166.26      67.27       67.22       
C           164.39      68.3        66.52       
C           163.7       68.25       65.37       
C           168.59      64.23       63.15       
C           168.91      64.84       64.37       
C           167.26      64.36       62.76       
N           168.62      66.14       66.16       
N           169.8       65.47       66.19       
N           170.01      64.72       65.11       
C           170.94      65.96       66.98       
H           166.92      63.95       61.84       
H           165.25      65.13       63.11       
H           170.53352   66.69586    67.67382    
H           171.49      65.2        67.48       
H           171.68267   66.44096    66.34343    
C           166.31      65.16       63.46       
C           167.94      65.61       65.11       
C           166.62      65.91       64.64       
C           171.58      62.69       61.15       
C           170.42      62.11       60.78       
S           171.28      63.9        62.28       
H           168.29      62.34       61.15       
H           170.4       61.3        59.96       
C           169.28      62.66       61.38       
C           169.59      63.56       62.33       
C           175.01      61.62       57.88       
C           174.54      62.26       58.99       
N           173.91      61.01       57.35       
C           172.73      61.17       58.22       
C           175.13      62.86       60.23       
O           176.24      63.25       60.55       
O           171.72      60.55       57.96       
C           174.31      63.11       62.56       
C           173.71      60.47       56.09       
H           173.40496   61.26452    55.40898    
H           174.62      59.98       55.68       
H           173.0       59.67       56.1        
H           173.51      62.78       63.26       
H           174.48109   64.16503    62.77386    
H           175.13      62.39       62.74       
N           174.02      62.89       61.14       
C           173.23      61.98       59.31       
C           172.86      62.56       60.5        
C           178.74      61.17       56.67       
C           178.63      62.28       57.48       
S           177.14      60.5        56.43       
H           177.11      63.32       58.56       
H           179.47      62.85       57.84       
C           177.3       62.54       57.85       
C           176.34      61.68       57.38       
C           182.14      58.59       55.66       
C           182.29      59.69       56.52       
C           180.88      58.41       55.08       
N           181.71      61.53       57.65       
N           182.95      61.13       57.92       
N           183.38      60.13       57.1        
C           183.81      61.54       59.08       
H           180.61      57.65       54.39       
H           179.01      59.31       54.72       
H           183.3722    62.44384    59.50368    
H           183.79      60.71       59.78       
H           184.83676   61.73965    58.7734     
C           179.88      59.45       55.34       
C           181.19      60.59       56.84       
C           179.92      60.48       56.25       
C           183.69      54.99       55.24       
C           184.54      55.78       55.92       
S           182.59      56.11       54.5        
H           184.8       57.93       56.65       
H           185.4       55.46       56.44       
C           184.23      57.2        56.05       
C           183.03      57.49       55.49       
C           182.23      50.73       53.39       
C           183.2       51.45       54.15       
N           181.26      51.62       53.05       
C           181.66      52.96       53.35       
C           184.44      51.36       54.84       
O           185.15      50.44       55.02       
O           181.02      53.91       52.99       
C           186.09      52.99       55.83       
C           180.06      51.47       52.27       
H           180.33993   51.57766    51.22207    
H           179.56      50.49       52.52       
H           179.33      52.26       52.43       
H           186.02      53.52       56.8        
H           186.67205   53.66663    55.2043     
H           186.52      52.05       56.04       
N           184.78      52.68       55.27       
C           182.88      52.85       54.15       
C           183.77      53.54       54.9        
C           181.74      46.84       52.59       
C           182.7       46.97       53.48       
S           181.14      48.46       52.19       
H           183.88      48.68       54.27       
H           183.23      46.15       53.89       
C           183.0       48.38       53.72       
C           182.21      49.32       53.21       
C           179.48      43.35       51.2        
C           180.21      43.35       52.46       
C           179.58      44.51       50.47       
N           181.3       44.2        54.28       
N           181.02      42.91       54.41       
N           180.43      42.34       53.33       
C           181.66      41.97       55.4        
H           178.97      44.61       49.58       
H           180.31      46.42       50.36       
H           181.86126   42.53064    56.31284    
H           181.04      41.14       55.59       
H           182.52988   41.48432    54.95781    
C           180.36      45.58       50.95       
C           180.87      44.51       53.0        
C           181.0       45.63       52.17       
C           176.55      41.08       49.57       
C           177.25      40.31       50.43       
S           177.24      42.7        49.65       
H           178.85      40.64       52.06       
H           176.97      39.31       50.64       
C           178.25      41.03       51.24       
C           178.52      42.28       50.75       
C           172.65      38.53       48.4        
C           173.39      39.67       48.31       
N           173.37      37.7        49.28       
C           174.55      38.28       49.8        
C           173.34      41.0        47.68       
O           172.5       41.6        47.04       
O           175.35      37.72       50.51       
C           175.12      42.66       47.29       
C           173.09      36.39       49.75       
H           173.81867   35.70461    49.31712    
H           172.11      36.0        49.39       
H           173.02      36.35       50.87       
H           176.17      42.52       47.17       
H           174.91248   43.68378    47.60129    
H           174.84      42.25       46.28       
N           174.6       41.57       48.06       
C           174.56      39.57       49.09       
C           175.34      40.75       48.92       
C           169.05      37.3        47.27       
C           169.1       38.64       47.24       
S           170.67      36.73       47.53       
H           170.47      40.37       47.66       
H           168.21      39.27       47.01       
C           170.36      39.24       47.65       
C           171.27      38.27       48.08       
C           165.64      34.75       45.95       
C           166.87      34.24       46.44       
C           165.53      36.15       46.17       
N           168.86      34.32       47.64       
N           168.33      33.11       47.53       
N           167.18      32.96       46.87       
C           169.44      32.03       47.6        
H           164.62      36.66       45.88       
H           166.57      38.05       46.49       
H           170.06049   32.25563    48.46728    
H           168.86      31.09       47.64       
H           170.06537   32.16243    46.71712    
C           166.71      36.93       46.45       
C           167.96      35.04       46.97       
C           167.92      36.44       46.94       
C           163.2       32.18       44.08       
C           162.66      33.44       44.15       
S           164.72      32.26       44.9        
H           163.15      35.51       44.9        
H           161.7       33.67       43.75       
C           163.45      34.47       44.8        
C           164.56      34.0        45.35       
C           162.22      27.53       43.2        
C           162.05      28.89       42.93       
N           163.14      27.53       44.21       
C           163.67      28.82       44.4        
C           161.16      29.75       42.17       
O           160.13      29.54       41.56       
O           164.51      29.1        45.28       
C           160.58      32.13       42.13       
C           163.78      26.44       44.99       
H           164.82871   26.35933    44.70399    
H           163.26      25.48       44.89       
H           163.9       26.63       46.0        
H           161.01      33.02       41.78       
H           159.79682   32.3205     42.86379    
H           160.04      31.87       41.25       
N           161.54      31.09       42.46       
C           162.88      29.73       43.65       
C           162.53      31.08       43.42       
C           160.5       24.28       41.92       
C           160.24      25.27       41.02       
S           161.51      24.78       43.22       
H           160.89      27.31       40.8        
H           159.63      25.18       40.16       
C           160.94      26.43       41.4        
C           161.65      26.41       42.5        
C           159.17      20.0        41.7        
C           158.58      21.03       40.94       
C           160.24      20.42       42.33       
N           158.2       23.12       40.16       
N           157.42      22.21       39.6        
N           157.58      20.94       40.05       
C           156.59      22.53       38.39       
H           160.76      19.65       42.9        
H           161.53      21.89       43.12       
H           157.07771   23.33328    37.83775    
H           155.7       22.99       38.76       
H           156.43135   21.69537    37.70712    
C           160.61      21.77       42.56       
C           159.0       22.42       40.94       
C           159.98      22.89       41.88       
H           80.2        82.67       68.58       
H           159.22      19.03       41.26       
