472

C           28.72       41.07       82.98       
C           29.43       41.11       81.82       
S           27.42       39.94       82.85       
H           29.32       40.11       79.82       
H           30.29       41.77       81.6        
C           28.89       40.24       80.86       
C           27.78       39.54       81.21       
C           29.04       42.11       87.57       
C           28.95       42.64       86.32       
N           28.94       40.71       87.48       
C           28.76       40.35       86.14       
C           29.01       43.81       85.52       
O           29.08       44.98       85.8        
O           28.74       39.23       85.69       
C           28.47       44.25       83.06       
C           29.47       39.6        88.33       
H           30.40611    39.19482    87.94578    
H           28.67       38.82       88.23       
H           29.5        39.79       89.37       
H           27.67       43.81       82.46       
H           29.34797    44.6925     82.58941    
H           27.96       45.12       83.49       
N           28.87       43.35       84.13       
C           28.83       41.57       85.39       
C           28.81       42.01       84.09       
C           29.9        43.73       91.09       
C           30.46       44.4        90.07       
S           29.16       42.34       90.44       
H           30.55       44.42       87.82       
H           30.85       45.37       90.18       
C           30.28       43.92       88.75       
C           29.63       42.73       88.72       
C           30.24       44.4        95.33       
C           29.43       43.31       94.88       
C           30.77       45.22       94.36       
N           28.36       42.0        93.33       
N           28.14       41.7        94.59       
N           28.67       42.41       95.56       
C           27.56       40.35       94.84       
H           31.42       46.08       94.55       
H           31.1        45.7        92.33       
H           27.4556     39.91004    93.84822    
H           28.23       39.74       95.44       
H           26.61074    40.3985     95.37353    
C           30.66       44.96       92.99       
C           29.24       43.05       93.47       
C           29.84       43.92       92.53       
C           31.93       44.87       98.8        
C           30.83       44.14       99.05       
S           31.91       45.39       97.17       
H           29.12       43.35       97.9        
H           30.56       43.63       100.02      
C           29.97       43.99       97.88       
C           30.46       44.55       96.74       
C           34.25       44.46       102.97      
C           34.14       45.07       101.72      
N           33.22       43.56       103.07      
C           32.37       43.58       101.94      
C           34.78       46.06       100.84      
O           35.78       46.81       100.87      
O           31.39       42.86       101.95      
C           34.32       46.89       98.59       
C           32.86       42.68       104.16      
H           32.03198    43.05191    104.76347   
H           33.59       42.55       104.93      
H           32.67       41.67       103.87      
H           33.48       47.2        98.1        
H           34.99677    46.51636    97.82158    
H           34.7        47.81       98.94       
N           33.96       45.99       99.68       
C           33.0        44.53       101.02      
C           32.89       45.12       99.83       
C           36.46       45.43       106.11      
C           37.02       45.87       104.97      
S           34.95       44.72       105.67      
H           36.71       45.87       102.81      
H           37.87       46.5        105.04      
C           36.34       45.63       103.83      
C           35.24       44.81       103.96      
C           37.63       46.11       110.31      
C           38.62       46.13       109.25      
C           36.35       45.87       109.89      
N           39.34       46.19       107.11      
N           40.37       46.26       108.02      
N           39.96       46.4        109.29      
C           41.75       46.42       107.55      
H           35.54       46.0        110.58      
H           34.95       45.49       108.27      
H           41.78582    46.44866    106.46097   
H           42.18       47.31       107.98      
H           42.4437     45.6708     107.93154   
C           35.98       45.61       108.52      
C           38.23       45.92       107.87      
C           36.91       45.58       107.47      
C           37.89       46.25       114.21      
C           39.13       46.35       113.76      
S           36.71       46.16       112.94      
H           40.0        46.69       111.78      
H           40.04       46.34       114.35      
C           39.12       46.5        112.34      
C           37.92       46.23       111.72      
C           38.81       46.04       119.07      
C           37.93       46.11       117.96      
N           40.07       45.91       118.48      
C           39.99       46.12       117.02      
C           36.53       46.14       117.71      
O           35.51       46.16       118.41      
O           41.0        46.37       116.37      
C           35.01       46.46       115.7       
C           41.43       45.88       119.0       
H           41.81501    44.86498    119.098     
H           42.15       46.31       118.36      
H           41.45       46.44       119.91      
H           34.96       46.05       114.68      
H           34.61639    47.47622    115.67853   
H           34.31       45.84       116.26      
N           36.41       46.39       116.32      
C           38.6        46.21       116.68      
C           37.66       46.29       115.69      
C           38.73       46.08       123.08      
C           37.45       45.95       122.66      
S           39.8        46.21       121.78      
H           36.45       45.77       120.69      
H           36.63       45.79       123.33      
C           37.36       45.98       121.22      
C           38.54       46.05       120.52      
C           40.44       46.59       127.14      
C           39.05       46.92       126.86      
C           41.03       45.95       126.08      
N           37.35       47.42       125.52      
N           37.07       47.55       126.79      
N           38.13       47.42       127.67      
C           35.91       48.34       127.18      
H           42.07       45.68       126.15      
H           41.02       45.25       124.09      
H           35.23796    48.42401    126.32595   
H           35.4        47.79       127.98      
H           36.26873    49.29663    127.55984   
C           40.51       45.89       124.76      
C           38.56       46.78       125.52      
C           39.27       46.21       124.4       
C           42.03       47.08       130.75      
C           42.91       46.6        129.87      
S           40.58       47.53       129.88      
H           43.06       45.89       127.89      
H           43.95       46.46       130.17      
C           42.43       46.39       128.55      
C           41.13       46.78       128.42      
C           45.0        48.96       133.99      
C           43.72       48.44       133.7       
N           45.71       48.99       132.74      
C           44.79       48.64       131.68      
C           42.37       48.21       134.21      
O           41.93       48.34       135.35      
O           45.1        48.63       130.52      
C           40.36       46.86       133.3       
C           47.2        48.79       132.48      
H           47.30052    47.75611    132.14973   
H           47.81       48.98       133.35      
H           47.74       49.42       131.75      
H           40.27       45.96       132.61      
H           39.45573    47.46522    133.23592   
H           40.46       46.42       134.27      
N           41.6        47.65       133.14      
C           43.55       48.2        132.32      
C           42.36       47.69       132.01      
C           46.82       50.16       137.39      
C           45.55       49.78       137.61      
S           47.11       50.09       135.61      
H           43.89       48.79       136.58      
H           45.1        49.86       138.61      
C           44.79       49.34       136.52      
C           45.51       49.36       135.31      
C           49.55       52.48       139.94      
C           50.02       51.76       138.84      
C           48.24       52.24       140.18      
N           49.92       50.69       136.86      
N           51.1        51.17       137.14      
N           51.29       51.77       138.32      
C           52.3        51.03       136.41      
H           47.71       52.63       141.02      
H           46.35       51.52       139.65      
H           52.08194    50.67125    135.40409   
H           52.85       51.97       136.46      
H           53.00073    50.41253    136.97197   
C           47.41       51.48       139.37      
C           49.18       51.0        138.0       
C           47.81       50.82       138.28      
C           51.68       55.51       141.4       
C           50.6        55.34       142.19      
S           51.74       54.28       140.16      
H           48.84       53.97       142.34      
H           50.3        55.99       143.06      
C           49.75       54.24       141.78      
C           50.28       53.48       140.68      
C           53.7        59.4        143.43      
C           53.83       58.37       142.47      
N           52.44       59.32       144.0       
C           51.65       58.32       143.3       
C           54.72       57.72       141.5       
O           55.84       57.95       141.13      
O           50.49       58.19       143.62      
C           54.8        55.42       140.44      
C           52.07       59.52       145.38      
H           52.40281    58.65742    145.95732   
H           50.98       59.7        145.42      
H           52.57       60.45       145.8       
H           54.26       55.09       139.62      
H           54.98069    54.59995    141.13496   
H           55.71       55.84       140.05      
N           54.03       56.52       141.05      
C           52.6        57.6        142.43      
C           52.68       56.54       141.55      
C           56.52       61.88       144.78      
C           56.96       61.33       143.6       
S           54.89       61.27       145.15      
H           56.13       59.92       142.18      
H           57.95       61.43       143.16      
C           55.92       60.48       143.04      
C           54.77       60.3        143.74      
C           58.75       64.5        147.64      
C           57.32       64.34       147.7       
C           59.27       63.88       146.53      
N           55.29       63.57       147.25      
N           55.31       64.32       148.37      
N           56.48       64.85       148.64      
C           54.23       64.28       149.35      
H           60.3        64.04       146.32      
H           59.12       62.42       144.9       
H           53.35854    63.77585    148.93228   
H           54.6        63.72       150.28      
H           53.94477    65.26787    149.71175   
C           58.56       63.01       145.61      
C           56.57       63.52       146.77      
C           57.19       62.77       145.72      
C           61.56       65.93       149.97      
C           60.33       66.19       150.58      
S           61.24       65.19       148.44      
H           58.23       66.03       150.08      
H           60.29       66.68       151.6       
C           59.23       65.87       149.76      
C           59.55       65.31       148.6       
C           64.84       66.85       153.42      
C           64.51       66.46       152.17      
N           63.68       67.3        154.03      
C           62.52       66.96       153.18      
C           65.13       66.03       150.9       
O           66.27       65.9        150.57      
O           61.37       67.17       153.62      
C           64.41       65.53       148.66      
C           63.59       68.6        154.69      
H           63.37169    69.40773    153.99142   
H           64.45       68.8        155.26      
H           62.78       68.71       155.39      
H           63.73       65.9        147.9       
H           64.56037    64.46306    148.4953    
H           65.34       66.06       148.44      
N           64.02       65.78       150.02      
C           63.13       66.47       151.88      
C           62.82       66.03       150.63      
C           67.89       67.02       155.89      
C           68.41       67.05       154.62      
S           66.17       66.94       155.81      
H           67.55       66.73       152.61      
H           69.45       67.14       154.42      
C           67.39       66.85       153.6       
C           66.13       67.01       154.09      
C           69.83       68.22       159.66      
C           70.59       67.92       158.52      
C           68.49       68.0        159.55      
N           70.98       67.27       156.42      
N           72.09       67.56       157.09      
N           71.91       68.03       158.31      
C           73.25       67.93       156.26      
H           67.8        68.16       160.39      
H           66.81       67.57       158.41      
H           73.19229    67.33123    155.35102   
H           73.17       69.02       156.01      
H           74.143      67.74718    156.85768   
C           67.94       67.56       158.34      
C           70.0        67.38       157.33      
C           68.55       67.28       157.13      
C           71.2        70.4        162.53      
C           72.0        69.25       162.56      
S           69.88       70.17       161.35      
H           71.92       67.18       161.54      
H           72.79       69.02       163.33      
C           71.5        68.25       161.65      
C           70.38       68.61       160.96      
C           72.65       73.01       166.2       
C           71.9        72.87       165.11      
N           73.25       71.77       166.55      
C           72.89       70.8        165.54      
C           70.96       73.52       164.28      
O           70.46       74.67       164.4       
O           73.45       69.75       165.42      
C           70.26       73.28       161.91      
C           74.19       71.41       167.6       
H           75.09715    71.99317    167.44161   
H           73.83       71.48       168.58      
H           74.58       70.41       167.53      
H           69.39       72.77       161.56      
H           71.02793    73.42166    161.14953   
H           69.98       74.31       162.2       
N           70.72       72.65       163.18      
C           71.97       71.55       164.6       
C           71.28       71.47       163.45      
C           73.21       76.82       166.88      
C           73.04       76.17       168.08      
S           73.39       75.63       165.61      
H           72.54       74.02       168.73      
H           73.04       76.73       169.02      
C           72.93       74.73       167.96      
C           73.04       74.34       166.63      
C           73.66       81.19       166.57      
C           73.86       80.34       165.46      
C           73.41       80.52       167.74      
N           73.86       78.47       164.31      
N           74.02       79.56       163.52      
N           74.14       80.66       164.17      
C           74.55       79.31       162.18      
H           73.26       81.14       168.64      
H           73.05       78.68       168.79      
H           74.72682    78.24907    162.00318   
H           73.77       79.71       161.47      
H           75.43707    79.91848    162.00405   
C           73.29       79.09       167.84      
C           73.76       78.96       165.61      
C           73.48       78.25       166.79      
C           73.97       85.12       167.13      
C           73.83       84.86       165.75      
S           74.16       83.6        167.87      
H           73.45       83.25       164.33      
H           73.64       85.64       164.98      
C           73.62       83.49       165.38      
C           73.65       82.66       166.48      
C           74.15       87.97       170.96      
C           74.33       87.79       169.62      
N           73.69       86.75       171.45      
C           73.46       85.83       170.36      
C           74.74       88.52       168.46      
O           75.12       89.69       168.34      
O           72.97       84.71       170.44      
C           74.55       88.13       166.05      
C           73.38       86.37       172.87      
H           74.3084     86.16947    173.40476   
H           72.7        87.06       173.35      
H           72.91       85.35       172.83      
H           73.7        87.77       165.5       
H           75.54525    88.02704    165.61758   
H           74.42       89.15       166.1       
N           74.5        87.63       167.35      
C           73.92       86.51       169.14      
C           74.08       86.4        167.83      
C           74.54       90.98       173.47      
C           75.26       91.24       172.36      
S           73.66       89.5        173.19      
H           75.7        90.28       170.37      
H           75.77       92.19       172.16      
C           75.11       90.29       171.28      
C           74.47       89.14       171.67      
C           73.94       93.33       177.18      
C           74.68       93.84       176.13      
C           73.45       92.11       176.94      
N           75.94       93.71       174.2       
N           76.07       94.83       174.86      
N           75.44       94.94       176.03      
C           76.97       95.9        174.52      
H           72.93       91.62       177.7       
H           73.08       90.47       175.7       
H           77.10589    95.95722    173.44002   
H           76.58       96.87       174.83      
H           77.95521    95.76337    174.96586   
C           73.56       91.42       175.7       
C           75.06       93.04       174.95      
C           74.42       91.78       174.71      
C           74.26       95.36       180.58      
C           73.39       94.33       180.8       
S           74.68       95.4        178.93      
H           72.6        92.57       179.61      
H           73.03       94.1        181.81      
C           73.14       93.5        179.66      
C           73.79       93.96       178.53      
C           74.21       97.91       184.72      
C           74.79       97.64       183.49      
N           73.22       96.97       184.95      
C           73.12       96.04       183.88      
C           75.79       98.05       182.6       
O           76.67       98.88       182.69      
O           72.36       95.13       183.84      
C           76.96       97.16       180.62      
C           72.28       96.84       185.99      
H           71.32496    97.25432    185.66697   
H           72.57       97.38       186.89      
H           72.18       95.8        186.31      
H           76.64       97.08       179.58      
H           77.71741    96.39564    180.79372   
H           77.41       98.1        180.74      
N           75.77       97.13       181.5       
C           74.2        96.44       182.92      
C           74.68       96.29       181.62      
C           74.55       101.25      186.95      
C           75.71       101.05      186.18      
S           73.47       99.85       186.72      
H           76.5        99.55       184.76      
H           76.46       101.81      186.05      
C           75.67       99.8        185.44      
C           74.56       99.01       185.62      
C           73.69       105.04      189.11      
C           73.19       103.81      189.59      
C           74.41       104.93      187.85      
N           72.83       101.55      189.55      
N           72.42       102.14      190.63      
N           72.49       103.45      190.74      
C           71.99       101.42      191.88      
H           74.76       105.86      187.35      
H           75.19       103.73      186.18      
H           71.45977    100.49567   191.65071   
H           72.8        101.22      192.62      
H           71.38184    102.147     192.41826   
C           74.59       103.69      187.12      
C           73.44       102.58      188.86      
C           74.18       102.47      187.65      
C           73.81       108.56      190.82      
C           72.55       108.04      191.04      
S           74.65       107.54      189.73      
H           71.66       106.01      190.81      
H           71.72       108.45      191.66      
C           72.51       106.66      190.6       
C           73.51       106.27      189.82      
C           73.76       113.23      192.18      
C           74.48       112.07      191.86      
N           72.46       112.85      192.24      
C           72.3        111.39      192.11      
C           75.82       111.6       191.49      
O           76.84       112.24      191.58      
O           71.23       110.81      192.28      
C           76.76       109.44      191.55      
C           71.24       113.62      192.06      
H           71.16802    113.87192   191.00196   
H           71.15       114.52      192.68      
H           70.44       112.98      192.44      
H           76.65       108.57      190.84      
H           76.79492    109.19554   192.61166   
H           77.66       109.96      191.24      
N           75.66       110.28      191.18      
C           73.65       110.92      191.71      
C           74.33       109.88      191.18      
C           75.75       116.59      192.13      
C           74.79       116.65      193.07      
S           75.57       115.08      191.24      
H           73.09       115.49      193.74      
H           74.67       117.5       193.71      
C           73.91       115.56      193.07      
C           74.34       114.51      192.29      
C           79.1        119.42      191.46      
C           78.17       119.6       192.47      
C           78.82       118.27      190.74      
N           76.53       119.2       193.89      
N           77.25       120.29      194.25      
N           78.3        120.53      193.45      
C           77.37       120.7       195.66      
H           79.63       117.97      190.09      
H           77.87       116.45      190.42      
H           77.40505    119.81682   196.29785   
H           76.58       121.35      195.88      
H           78.25535    121.32117   195.79566   
C           77.8        117.41      190.95      
C           77.19       118.64      192.84      
C           76.89       117.52      191.99      
H           27.54       38.57       80.71       
H           80.12       119.69      191.7       
