472

C           78.45       26.66       6.38        
C           79.03       27.86       6.11        
S           76.95       26.94       7.21        
H           78.67       29.96       6.64        
H           79.98       27.95       5.66        
C           78.24       28.93       6.62        
C           77.06       28.66       7.2         
C           81.86       23.44       5.49        
C           80.58       23.74       5.84        
N           82.35       24.6        5.03        
C           81.47       25.69       5.07        
C           79.37       23.1        6.27        
O           79.09       21.89       6.45        
O           81.66       26.8        4.58        
C           77.1        23.76       7.02        
C           83.7        24.99       4.89        
H           84.05538    25.64894    5.68221     
H           83.91       25.55       3.91        
H           84.39       24.13       4.88        
H           76.37       24.37       6.55        
H           77.07835    23.77443    8.10969     
H           76.95       22.81       6.56        
N           78.42       24.17       6.53        
C           80.26       25.14       5.67        
C           79.01       25.37       6.16        
C           83.21       19.76       6.43        
C           84.05       20.28       5.47        
S           81.99       20.93       6.85        
H           84.09       22.11       4.25        
H           84.68       19.58       4.88        
C           83.66       21.61       5.05        
C           82.48       22.1        5.64        
C           83.66       15.89       8.5         
C           84.81       16.52       7.95        
C           82.49       16.59       8.32        
N           85.96       18.04       6.89        
N           86.7        16.98       7.22        
N           86.13       16.12       7.95        
C           88.17       16.91       7.09        
H           81.54       16.15       8.68        
H           81.45       18.33       7.62        
H           88.54573    17.87715    6.75602     
H           88.59       16.58       8.08        
H           88.42754    16.13041    6.37306     
C           82.43       17.81       7.61        
C           84.7        17.81       7.3         
C           83.48       18.49       7.07        
C           83.96       12.19       9.88        
C           82.79       12.74       10.3        
S           84.75       13.26       8.81        
H           81.8        14.69       10.21       
H           82.2        12.35       11.14       
C           82.6        14.1        9.91        
C           83.65       14.57       9.15        
C           86.92       8.46        9.66        
C           85.68       8.94        10.04       
N           87.72       9.51        9.38        
C           86.97       10.72       9.36        
C           84.34       8.56        10.48       
O           83.86       7.49        10.62       
O           87.51       11.81       9.19        
C           82.18       9.74        10.64       
C           89.17       9.55        9.36        
H           89.54622    9.89728     8.39774     
H           89.6        8.56        9.36        
H           89.65       10.15       10.21       
H           81.79       10.49       10.05       
H           81.77995    9.7331      11.65391    
H           81.79       8.82        10.13       
N           83.61       9.79        10.58       
C           85.66       10.31       9.76        
C           84.44       10.84       10.04       
C           88.18       4.9         10.74       
C           88.66       5.19        9.48        
S           87.08       6.19        11.2        
H           88.58       6.9         8.07        
H           89.22       4.55        8.88        
C           88.25       6.49        8.99        
C           87.37       7.13        9.78        
C           88.07       0.93        12.56       
C           89.03       1.28        11.59       
C           87.23       1.93        12.94       
N           89.99       2.59        9.95        
N           90.5        1.34        10.04       
N           89.89       0.53        10.92       
C           91.6        0.82        9.26        
H           86.39       1.65        13.62       
H           86.75       4.06        12.88       
H           91.94567    1.55455     8.53265     
H           92.39       0.61        10.0        
H           91.25003    -0.08706    8.76719     
C           87.39       3.28        12.43       
C           89.1        2.57        10.97       
C           88.23       3.64        11.42       
C           87.28       -2.49       14.37       
C           88.42       -2.61       13.7        
S           86.6        -0.88       14.15       
H           89.8        -1.35       12.74       
H           89.0        -3.54       13.7        
C           88.84       -1.41       13.23       
C           87.99       -0.36       13.26       
C           84.79       -4.5        17.99       
C           85.56       -4.62       16.89       
N           84.48       -3.09       18.09       
C           84.93       -2.39       16.93       
C           86.26       -5.64       16.1        
O           86.39       -6.84       16.21       
O           84.78       -1.2        16.69       
C           87.55       -5.65       14.04       
C           84.27       -2.23       19.31       
H           83.19913    -2.03274    19.35932    
H           84.71       -2.65       20.12       
H           84.73       -1.26       19.17       
H           88.56       -5.36       13.72       
H           86.833      -5.81658    13.23609    
H           87.74       -6.66       14.4        
N           86.91       -4.9        15.1        
C           85.73       -3.39       16.21       
C           86.66       -3.51       15.18       
C           83.95       -6.98       21.04       
C           84.88       -7.52       20.24       
S           83.32       -5.54       20.23       
H           86.04       -6.88       18.4        
H           85.35       -8.45       20.39       
C           85.25       -6.7        19.1        
C           84.57       -5.49       19.0        
C           81.62       -8.97       24.29       
C           82.95       -9.33       23.9        
C           81.19       -7.84       23.73       
N           84.94       -9.24       22.85       
N           84.9        -10.11      23.89       
N           83.7        -10.32      24.45       
C           86.09       -10.8       24.3        
H           80.23       -7.37       23.94       
H           81.48       -6.24       22.19       
H           86.87304    -10.46954   23.61754    
H           86.29       -10.59      25.33       
H           85.91196    -11.87534   24.30712    
C           81.97       -7.14       22.69       
C           83.7        -8.65       22.9        
C           83.23       -7.53       22.21       
C           78.92       -10.22      26.97       
C           80.09       -10.85      27.2        
S           79.2        -9.05       25.68       
H           82.2        -10.94      26.37       
H           80.29       -11.57      28.02       
C           81.19       -10.48      26.34       
C           80.85       -9.59       25.37       
C           76.02       -11.72      30.4        
C           76.19       -11.05      29.27       
N           77.28       -11.88      30.95       
C           78.3        -11.57      29.96       
C           75.42       -10.59      28.14       
O           74.22       -10.63      27.86       
O           79.46       -11.76      30.15       
C           75.93       -9.25       26.09       
C           77.58       -11.73      32.38       
H           77.8011     -10.6958    32.6439     
H           78.44       -12.34      32.63       
H           76.82       -12.15      32.96       
H           76.61       -9.43       25.28       
H           75.67836    -8.2147     26.32007    
H           75.04       -9.7        25.68       
N           76.42       -10.05      27.24       
C           77.59       -10.91      28.89       
C           77.71       -10.26      27.72       
C           72.8        -12.88      32.24       
C           72.58       -11.69      31.63       
S           74.48       -13.11      32.19       
H           73.56       -10.33      30.16       
H           71.67       -11.17      31.78       
C           73.62       -11.19      30.82       
C           74.75       -11.86      31.05       
C           69.76       -14.95      34.62       
C           70.78       -15.69      34.02       
C           69.88       -13.59      34.47       
N           72.67       -15.98      32.92       
N           72.23       -17.12      33.39       
N           71.03       -17.03      34.12       
C           72.84       -18.38      33.05       
H           69.14       -12.91      35.09       
H           70.68       -11.87      33.57       
H           73.79552    -18.28376   32.53443    
H           72.98       -18.94      34.07       
H           72.14447    -18.995     32.47893    
C           70.87       -12.94      33.7        
C           71.86       -15.03      33.35       
C           71.84       -13.66      33.02       
C           66.49       -15.37      36.67       
C           66.84       -16.65      36.21       
S           67.83       -14.37      36.48       
H           68.35       -17.57      34.87       
H           66.2        -17.52      36.38       
C           67.95       -16.66      35.29       
C           68.61       -15.46      35.35       
C           62.43       -16.01      39.14       
C           63.32       -15.1       38.6        
N           63.13       -17.18      39.3        
C           64.35       -17.15      38.56       
C           63.48       -13.75      38.23       
O           62.88       -12.73      38.5        
O           65.14       -18.1       38.52       
C           65.19       -12.44      37.1        
C           62.81       -18.29      40.19       
H           62.59282    -19.20778   39.64354    
H           61.97       -17.99      40.76       
H           63.61       -18.56      40.81       
H           65.81       -12.41      36.18       
H           65.77953    -11.93469   37.86499    
H           64.3        -11.86      36.99       
N           64.76       -13.72      37.51       
C           64.48       -15.8       38.09       
C           65.38       -14.95      37.47       
C           58.71       -15.75      40.58       
C           59.32       -14.54      40.64       
S           59.86       -16.89      39.88       
H           61.21       -13.62      40.14       
H           58.86       -13.6       40.92       
C           60.69       -14.54      40.28       
C           61.18       -15.75      39.8        
C           54.44       -16.7       41.32       
C           54.94       -15.42      41.16       
C           55.47       -17.63      41.32       
N           56.34       -13.74      40.66       
N           55.09       -13.33      40.9        
N           54.21       -14.28      41.21       
C           54.73       -11.94      40.9        
H           55.25       -18.59      41.73       
H           57.42       -18.24      41.11       
H           55.60957    -11.31072   41.03587    
H           54.2        -11.69      39.98       
H           53.92596    -11.75822   41.61315    
C           56.82       -17.31      41.14       
C           56.3        -15.07      40.8        
C           57.31       -16.09      40.79       
C           50.96       -18.37      41.92       
C           50.95       -17.1       42.43       
S           52.56       -18.69      41.42       
H           52.25       -15.3       42.54       
H           50.04       -16.64      42.85       
C           52.12       -16.34      42.24       
C           53.1        -17.07      41.61       
C           49.22       -22.68      41.17       
C           49.0        -21.45      41.67       
N           50.4        -22.65      40.49       
C           51.06       -21.37      40.68       
C           48.05       -20.63      42.41       
O           47.03       -20.88      42.97       
O           52.05       -21.07      40.04       
C           47.95       -18.22      43.04       
C           50.8        -23.5       39.42       
H           51.76332    -23.99221   39.5536     
H           51.06       -22.99      38.5        
H           50.08       -24.33      39.2        
H           47.94       -17.29      42.56       
H           48.01374    -18.12085   44.12361    
H           46.9        -18.45      42.71       
N           48.72       -19.36      42.59       
C           50.13       -20.63      41.5        
C           49.94       -19.38      42.04       
C           47.39       -26.16      41.89       
C           46.5        -25.14      42.0        
S           48.95       -25.5       41.53       
H           46.51       -22.88      41.8        
H           45.44       -25.31      42.13       
C           47.06       -23.85      41.72       
C           48.4        -23.85      41.37       
C           46.69       -30.58      42.02       
C           45.76       -29.68      42.6        
C           47.77       -29.94      41.46       
N           44.93       -27.64      43.2        
N           44.1        -28.66      43.51       
N           44.61       -29.86      43.27       
C           42.99       -28.43      44.45       
H           48.61       -30.55      41.1        
H           48.89       -28.19      41.04       
H           42.33536    -27.6099    44.15505    
H           42.41       -29.31      44.44       
H           43.41123    -28.25449   45.43988    
C           47.97       -28.56      41.46       
C           46.0        -28.26      42.6        
C           47.13       -27.58      42.0        
C           45.77       -34.23      41.0        
C           45.45       -34.05      42.26       
S           46.56       -32.79      40.41       
H           45.61       -32.5       43.85       
H           44.97       -34.86      42.92       
C           45.88       -32.8       42.84       
C           46.44       -31.97      41.92       
C           45.27       -37.1       37.15       
C           45.42       -36.94      38.5        
N           44.84       -35.89      36.69       
C           44.78       -34.88      37.77       
C           45.83       -37.67      39.64       
O           46.36       -38.75      39.82       
O           44.43       -33.75      37.56       
C           46.86       -37.0       41.79       
C           44.7        -35.41      35.33       
H           45.66453    -35.08849   34.93704    
H           44.21       -36.05      34.62       
H           43.99       -34.53      35.4        
H           46.42       -36.45      42.6        
H           47.90915    -36.72505   41.68147    
H           46.75       -38.13      41.94       
N           46.05       -36.61      40.62       
C           45.21       -35.58      38.98       
C           45.57       -35.35      40.24       
C           45.04       -40.23      34.76       
C           45.09       -40.6       36.03       
S           45.22       -38.51      34.69       
H           45.46       -39.73      37.98       
H           45.09       -41.62      36.3        
C           45.26       -39.53      36.95       
C           45.28       -38.34      36.38       
C           43.62       -42.36      31.29       
C           44.56       -41.34      31.13       
C           43.34       -42.69      32.61       
N           45.82       -39.58      31.92       
N           45.52       -39.51      30.62       
N           44.98       -40.63      30.03       
C           45.48       -38.26      29.88       
H           42.7        -43.52      32.76       
H           43.63       -42.44      34.8        
H           45.82472    -37.46504   30.54129    
H           46.19       -38.39      29.07       
H           44.50158    -37.95732   29.50693    
C           43.93       -42.09      33.8        
C           45.04       -40.67      32.34       
C           44.75       -41.06      33.65       
C           41.95       -43.93      28.03       
C           41.19       -44.28      28.99       
S           43.28       -42.9       28.51       
H           41.09       -43.9       31.24       
H           40.17       -44.72      28.76       
C           41.68       -43.82      30.32       
C           42.85       -43.07      30.2        
C           43.01       -45.04      23.42       
C           42.06       -44.63      24.36       
N           44.2        -45.16      24.24       
C           43.96       -44.77      25.57       
C           40.6        -44.27      24.5        
O           39.74       -43.94      23.73       
O           44.95       -44.71      26.31       
C           39.13       -43.69      26.35       
C           45.53       -45.7       23.92       
H           46.26371    -44.89505   23.87726    
H           45.73       -46.41      24.76       
H           45.58       -46.16      22.97       
H           39.24       -43.06      27.23       
H           38.50861    -44.55706   26.57399    
H           38.72       -43.01      25.64       
N           40.45       -44.09      25.91       
C           42.54       -44.52      25.68       
C           41.61       -44.27      26.63       
C           43.22       -45.57      19.47       
C           41.96       -45.31      19.81       
S           44.23       -45.41      20.91       
H           40.68       -44.86      21.64       
H           41.18       -45.14      19.02       
C           41.69       -45.07      21.22       
C           42.86       -45.22      21.97       
C           45.1        -45.81      15.43       
C           45.69       -46.38      16.57       
C           43.87       -45.36      15.71       
N           46.0        -46.75      18.71       
N           47.08       -47.06      18.0        
N           46.92       -46.93      16.69       
C           48.32       -47.52      18.61       
H           43.22       -45.02      14.9        
H           42.27       -44.92      16.96       
H           48.43209    -47.01561   19.56975    
H           48.17       -48.6       18.74       
H           49.16935    -47.40769   17.93614    
C           43.25       -45.3       16.96       
C           45.04       -46.31      17.82       
C           43.77       -45.77      18.1        
C           46.68       -45.19      11.94       
C           47.2        -46.4       12.35       
S           45.36       -44.67      12.9        
H           46.92       -47.79      13.97       
H           47.99       -46.91      11.86       
C           46.58       -46.87      13.53       
C           45.7        -45.93      14.07       
C           48.85       -44.67      7.67        
C           48.1        -44.09      8.69        
N           49.28       -45.94      8.08        
C           48.63       -46.23      9.29        
C           47.29       -42.95      8.99        
O           47.0        -41.91      8.44        
O           48.45       -47.39      9.48        
C           45.91       -42.3       10.87       
C           50.47       -46.77      7.82        
H           51.16344    -46.77      8.66098     
H           51.01       -46.3       6.97        
H           50.19       -47.78      7.48        
H           45.89       -42.42      11.94       
H           44.89001    -42.3       10.48566    
H           46.42       -41.38      10.71       
N           46.73       -43.3       10.21       
C           48.02       -45.04      9.78        
C           47.1        -44.55      10.69       
C           50.25       -43.09      4.37        
C           50.15       -42.17      5.33        
S           49.89       -44.67      4.96        
H           49.1        -42.02      7.25        
H           50.44       -41.14      5.13        
C           49.47       -42.66      6.44        
C           49.4        -44.01      6.51        
C           51.64       -42.51      0.3         
C           52.15       -41.75      1.4         
C           50.62       -43.38      0.63        
N           52.46       -41.25      3.54        
N           53.34       -40.68      2.78        
N           53.28       -40.92      1.49        
C           54.46       -40.1       3.49        
H           50.02       -43.98      -0.1        
H           49.24       -44.19      2.16        
H           54.14319    -39.70399   4.45483     
H           55.15       -40.86      3.75        
H           54.96471    -39.34294   2.88981     
C           50.17       -43.63      1.98        
C           51.73       -42.07      2.74        
C           50.7        -42.98      3.0         
C           52.1        -41.96      -3.68       
C           53.3        -41.88      -3.02       
S           50.92       -42.42      -2.42       
H           54.09       -41.82      -1.02       
H           54.22       -41.71      -3.56       
C           53.24       -41.94      -1.6        
C           52.05       -42.26      -1.08       
C           53.17       -43.2       -8.23       
C           52.24       -42.8       -7.29       
N           54.34       -43.39      -7.49       
C           54.12       -42.95      -6.13       
C           50.86       -42.44      -7.12       
O           49.98       -42.39      -7.87       
O           54.97       -42.97      -5.35       
C           49.31       -41.86      -5.22       
C           55.35       -44.3       -7.8        
H           55.35       -45.17612   -7.15153    
H           56.31       -43.77      -7.95       
H           55.19       -44.79      -8.7        
H           49.25       -41.23      -4.32       
H           48.67665    -42.74524   -5.16242    
H           48.9        -41.16      -6.01       
N           50.67       -42.13      -5.69       
C           52.74       -42.65      -5.95       
C           51.85       -42.27      -5.04       
C           53.06       -43.58      -12.13      
C           51.83       -43.29      -11.69      
S           54.17       -43.5       -10.77      
H           50.84       -42.55      -9.89       
H           50.96       -43.19      -12.31      
C           51.75       -42.94      -10.3       
C           52.96       -43.22      -9.63       
C           54.4        -44.09      -16.32      
C           53.06       -43.63      -15.99      
C           55.2        -44.29      -15.24      
N           51.33       -42.97      -14.76      
N           51.18       -42.65      -16.07      
N           52.12       -43.16      -16.79      
C           49.85       -42.26      -16.53      
H           56.27       -44.47      -15.4       
H           55.55       -44.41      -13.14      
H           49.10677    -42.34494   -15.73722   
H           49.61       -42.86      -17.41      
H           49.85698    -41.23463   -16.89969   
C           54.77       -44.19      -13.85      
C           52.61       -43.53      -14.65      
C           53.48       -43.78      -13.52      
H           76.63       29.37       8.02        
H           54.52       -44.74      -17.22      
