472

C           67.59       29.77       85.87       
C           66.56       29.61       86.72       
S           67.65       28.36       84.88       
H           64.84       28.24       86.89       
H           66.14       30.43       87.26       
C           65.78       28.47       86.44       
C           66.27       27.53       85.59       
C           69.96       33.39       88.07       
C           69.81       32.51       87.04       
N           68.88       33.21       88.88       
C           68.12       32.09       88.49       
C           70.4        32.13       85.74       
O           71.37       32.51       85.15       
O           67.03       31.89       89.11       
C           69.93       30.63       83.8        
C           68.63       33.84       90.2        
H           69.23188    33.30418    90.93399    
H           67.55       33.85       90.28       
H           68.89       34.91       90.05       
H           68.97       30.35       83.39       
H           70.66959    29.82934    83.79321    
H           70.33       31.46       83.29       
N           69.63       31.1        85.19       
C           68.68       31.65       87.17       
C           68.56       30.79       86.08       
C           72.53       36.36       88.47       
C           72.18       36.16       87.14       
S           71.64       35.2        89.38       
H           70.84       34.73       86.0        
H           72.53       36.83       86.41       
C           71.31       35.05       86.94       
C           70.8        34.53       88.05       
C           74.81       39.44       90.78       
C           74.73       39.45       89.36       
C           74.13       38.37       91.29       
N           74.24       38.76       87.3        
N           75.03       39.75       87.27       
N           75.38       40.27       88.48       
C           75.55       40.25       85.96       
H           74.16       38.26       92.35       
H           72.96       36.68       91.15       
H           74.86348    39.8686     85.20414    
H           75.59       41.32       85.89       
H           76.55153    39.85356    85.79308    
C           73.46       37.39       90.53       
C           74.09       38.42       88.56       
C           73.33       37.39       89.14       
C           76.71       41.53       93.56       
C           77.28       41.87       92.36       
S           75.42       40.38       93.26       
H           77.13       41.26       90.27       
H           78.04       42.63       92.22       
C           76.75       41.14       91.25       
C           75.7        40.33       91.54       
C           76.67       43.01       98.01       
C           77.48       42.74       96.91       
N           75.4        42.47       97.92       
C           75.29       41.93       96.58       
C           78.75       42.78       96.34       
O           79.79       43.34       96.53       
O           74.23       41.48       96.2        
C           79.75       41.32       94.52       
C           74.49       42.13       98.94       
H           74.39098    41.04783    99.02488    
H           73.54       42.65       98.68       
H           74.82       42.56       99.85       
H           79.95       41.56       93.5        
H           79.61501    40.25428    94.70472    
H           80.65       41.54       95.14       
N           78.61       42.17       95.07       
C           76.65       42.01       96.02       
C           77.29       41.88       94.83       
C           77.28       45.86       100.56      
C           78.5        45.28       100.34      
S           76.0        44.91       99.8        
H           79.17       43.81       99.01       
H           79.47       45.65       100.62      
C           78.33       44.17       99.55       
C           77.1        43.77       99.16       
C           76.22       49.52       102.87      
C           77.41       48.76       103.07      
C           75.42       48.96       101.91      
N           79.03       47.26       102.7       
N           79.3        48.02       103.7       
N           78.44       48.98       103.94      
C           80.67       48.08       104.12      
H           74.49       49.49       101.58      
H           75.03       47.49       100.42      
H           81.20617    47.48884    103.37761   
H           80.97       49.15       104.09      
H           80.7642     47.6742     105.12725   
C           75.73       47.74       101.22      
C           77.79       47.65       102.29      
C           76.92       47.09       101.34      
C           74.52       52.87       104.31      
C           75.83       52.82       104.73      
S           74.29       51.35       103.47      
H           77.64       51.47       104.75      
H           76.22       53.64       105.25      
C           76.58       51.67       104.4       
C           75.87       50.76       103.59      
C           70.1        54.63       103.58      
C           71.26       54.59       104.39      
N           70.28       53.87       102.44      
C           71.68       53.36       102.53      
C           71.79       55.06       105.62      
O           71.25       55.81       106.47      
O           72.12       52.66       101.64      
C           73.93       54.69       106.95      
C           69.53       53.8        101.24      
H           69.59459    54.73302    100.68019   
H           69.79       53.0        100.61      
H           68.5        53.64       101.47      
H           74.89       55.11       106.71      
H           74.11695    53.83003    107.59311   
H           73.46       55.39       107.62      
N           73.16       54.54       105.69      
C           72.28       53.87       103.78      
C           73.43       53.82       104.53      
C           66.57       56.46       104.0       
C           67.58       57.17       104.66      
S           67.32       55.05       103.37      
H           69.78       57.13       105.06      
H           67.49       58.13       105.12      
C           68.92       56.59       104.62      
C           68.94       55.46       103.85      
C           62.21       56.57       104.46      
C           63.06       57.32       105.41      
C           62.87       55.93       103.49      
N           64.95       58.29       106.07      
N           63.85       58.83       106.68      
N           62.67       58.22       106.37      
C           64.0        59.88       107.62      
H           62.27       55.27       102.87      
H           64.7        55.17       102.58      
H           64.99128    60.29363    107.43458   
H           63.22       60.56       107.37      
H           63.92884    59.49575    108.63754   
C           64.3        55.82       103.39      
C           64.48       57.31       105.32      
C           65.14       56.48       104.29      
C           58.31       55.69       104.16      
C           58.53       56.51       105.18      
S           59.82       55.35       103.4       
H           60.18       57.53       106.24      
H           57.65       56.82       105.74      
C           59.89       56.81       105.49      
C           60.74       56.28       104.54      
C           55.24       53.46       101.37      
C           55.54       53.98       102.55      
N           56.39       53.67       100.55      
C           57.37       54.36       101.27      
C           54.88       54.32       103.79      
O           53.77       54.08       104.26      
O           58.47       54.41       100.83      
C           56.0        54.51       106.04      
C           56.56       53.68       99.15       
H           56.37672    54.70213    98.81869    
H           55.87       53.02       98.73       
H           57.54       53.32       98.96       
H           56.49       55.36       106.56      
H           56.50835    53.57097    106.25887   
H           54.98       54.5        106.33      
N           55.96       54.83       104.6       
C           56.81       54.61       102.55      
C           57.05       55.16       103.79      
C           51.94       51.75       99.92       
C           52.01       51.57       101.26      
S           53.34       52.62       99.49       
H           53.19       52.23       102.92      
H           51.25       51.08       101.81      
C           53.14       52.17       101.88      
C           54.03       52.66       101.05      
C           48.82       50.35       97.14       
C           49.95       50.98       96.7        
C           48.88       49.95       98.48       
N           51.83       52.19       96.76       
N           51.44       51.92       95.57       
N           50.3        51.3        95.46       
C           52.45       51.69       94.49       
H           48.04       49.43       98.96       
H           50.01       49.99       100.26      
H           53.36117    52.23807    94.72978    
H           52.68       50.6        94.49       
H           52.0516     51.99223    93.52148    
C           49.97       50.36       99.3        
C           50.99       51.55       97.55       
C           51.02       51.22       98.93       
C           45.47       49.1        95.68       
C           45.95       50.11       94.77       
S           46.59       48.95       97.02       
H           47.72       51.33       94.57       
H           45.41       50.38       93.86       
C           47.19       50.62       95.17       
C           47.66       50.12       96.37       
C           42.41       45.77       97.24       
C           42.59       46.88       96.44       
N           43.62       45.51       97.85       
C           44.69       46.32       97.32       
C           42.02       47.62       95.39       
O           40.91       47.51       94.8        
O           45.78       46.22       97.7        
C           42.81       49.16       93.65       
C           43.88       44.54       98.84       
H           44.34529    43.70811    98.31126    
H           42.95       44.16       99.25       
H           44.45       44.92       99.59       
H           43.69       49.18       92.98       
H           42.42216    50.17808    93.68463    
H           42.13       48.45       93.14       
N           43.07       48.51       94.91       
C           43.98       47.23       96.47       
C           44.21       48.34       95.64       
C           39.34       43.43       97.29       
C           38.89       44.7        97.16       
S           41.07       43.41       97.57       
H           39.87       46.65       96.89       
H           37.85       44.92       96.8        
C           39.94       45.6        97.07       
C           41.18       45.11       97.43       
C           37.09       39.72       98.11       
C           38.45       39.75       97.91       
C           36.52       41.01       98.19       
N           40.45       40.67       97.2        
N           40.48       39.34       97.44       
N           39.38       38.76       97.83       
C           41.45       38.52       96.77       
H           35.5        41.12       98.56       
H           36.76       43.14       98.25       
H           42.38952    39.071      96.81238    
H           41.52       37.56       97.25       
H           41.16138    38.41898    95.72377    
C           37.23       42.21       98.0        
C           39.13       40.94       97.47       
C           38.56       42.24       97.5        
C           35.59       36.05       98.52       
C           34.55       36.95       98.7        
S           36.98       36.89       97.98       
H           34.31       39.21       98.82       
H           33.62       36.55       99.0        
C           34.98       38.31       98.68       
C           36.28       38.45       98.3        
C           37.22       31.61       98.54       
C           36.16       32.44       98.41       
N           38.35       32.42       98.91       
C           37.91       33.78       99.03       
C           34.73       32.51       98.11       
O           33.92       31.66       97.67       
O           38.65       34.62       99.38       
C           33.15       34.22       97.54       
C           39.73       32.2        98.5        
H           40.07164    32.80499    97.66014    
H           39.95       31.23       98.1        
H           40.35       32.26       99.33       
H           33.17       35.23       97.08       
H           32.34096    34.1532     98.26739    
H           33.02       33.56       96.65       
N           34.4        33.85       98.14       
C           36.49       33.74       98.68       
C           35.45       34.59       98.5        
C           37.66       27.72       98.81       
C           36.34       28.07       98.86       
S           38.53       29.16       98.56       
H           35.06       29.92       98.83       
H           35.5        27.32       98.85       
C           36.04       29.46       98.71       
C           37.18       30.2        98.6        
C           39.75       23.95       99.48       
C           38.37       24.0        99.14       
C           40.41       25.15       99.45       
N           36.39       24.92       98.48       
N           36.37       23.55       98.52       
N           37.5        23.0        98.95       
C           35.3        22.77       98.03       
H           41.47       25.14       99.62       
H           40.29       27.25       99.21       
H           34.67136    23.43435    97.43708    
H           35.66       21.87       97.45       
H           34.64808    22.32584    98.78221    
C           39.68       26.35       99.08       
C           37.66       25.19       98.79       
C           38.34       26.48       98.95       
C           42.11       20.84       99.67       
C           40.93       20.56       100.38      
S           42.08       22.48       99.18       
H           39.02       21.46       100.75      
H           40.67       19.67       100.93      
C           40.01       21.62       100.4       
C           40.49       22.72       99.75       
C           44.21       16.47       100.0       
C           44.31       17.74       99.5        
N           43.16       16.47       100.94      
C           42.59       17.75       101.13      
C           44.9        18.62       98.54       
O           45.91       18.41       97.87       
O           41.67       17.9        101.93      
C           44.82       21.01       97.95       
C           42.34       15.36       101.45      
H           41.67198    14.96914    100.68249   
H           43.02       14.52       101.74      
H           41.82       15.43       102.41      
H           44.66       21.78       98.63       
H           44.30662    21.23817    97.01593    
H           45.88       20.86       97.9        
N           44.22       19.85       98.59       
C           43.24       18.61       100.08      
C           43.15       19.84       99.48       
C           46.69       13.32       99.82       
C           46.98       14.18       98.81       
S           45.28       13.85       100.66      
H           46.22       16.13       98.04       
H           47.61       13.96       98.05       
C           46.17       15.34       98.82       
C           45.11       15.32       99.72       
C           46.77       8.99        99.97       
C           46.79       9.77        101.14      
C           47.0        9.72        98.73       
N           46.87       11.7        102.37      
N           46.67       10.61       103.07      
N           46.71       9.42        102.47      
C           46.03       10.67       104.43      
H           47.16       9.28        97.79       
H           47.31       11.6        97.75       
H           46.53105    11.40343    105.06176   
H           45.02       11.04       104.39      
H           46.08628    9.69219     104.90835   
C           47.17       11.14       98.74       
C           46.96       11.19       101.12      
C           47.03       11.9        99.88       
C           45.52       5.39        99.06       
C           45.91       5.31        100.39      
S           46.17       6.86        98.34       
H           46.73       6.79        101.82      
H           45.77       4.34        100.97      
C           46.41       6.6         100.84      
C           46.48       7.56        99.87       
C           44.22       1.01        97.58       
C           44.05       2.35        97.46       
N           45.39       0.79        98.28       
C           45.85       2.03        98.83       
C           43.17       3.4         96.96       
O           42.15       3.39        96.3        
O           46.84       2.05        99.56       
C           43.07       5.93        97.25       
C           46.03       -0.41       98.69       
H           46.57693    -0.893      97.88026    
H           46.76       -0.27       99.42       
H           45.41       -1.12       99.3        
H           43.63       6.8         96.87       
H           42.58213    6.32029     98.14317    
H           42.25       5.73        96.54       
N           43.8        4.68        97.43       
C           45.03       3.08        98.23       
C           44.85       4.42        98.28       
C           41.78       -1.26       95.38       
C           42.28       -2.0        96.45       
S           42.59       0.23        95.36       
H           43.58       -1.69       98.26       
H           41.91       -2.95       96.8        
C           43.13       -1.26       97.37       
C           43.42       0.02        96.88       
C           38.4        -2.38       92.7        
C           39.14       -1.2        92.48       
C           38.8        -3.13       93.73       
N           40.84       0.21        92.7        
N           40.02       0.56        91.75       
N           38.98       -0.21       91.58       
C           40.07       1.94        91.22       
H           38.33       -4.05       93.95       
H           40.21       -3.54       95.33       
H           41.12137    2.15027     91.02375    
H           39.46       2.02        90.31       
H           39.66339    2.66209     91.92807    
C           39.97       -2.81       94.46       
C           40.32       -0.87       93.27       
C           40.77       -1.66       94.38       
C           35.23       -3.1        90.33       
C           35.28       -4.03       91.29       
S           36.63       -2.09       90.45       
H           36.44       -4.4        93.13       
H           34.55       -4.83       91.33       
C           36.3        -3.8        92.27       
C           37.16       -2.8        91.95       
C           32.91       -1.09       86.74       
C           33.18       -2.24       87.43       
N           33.79       -0.14       87.13       
C           34.42       -0.56       88.37       
C           32.83       -3.63       87.59       
O           32.14       -4.44       86.99       
O           35.14       0.19        88.99       
C           34.04       -5.44       88.59       
C           34.3        1.02        86.47       
H           35.09554    0.68977     85.80204    
H           34.75       1.78        87.12       
H           33.56       1.58        85.85       
H           34.09       -5.88       89.6        
H           34.96323    -5.62324    88.04029    
H           33.23       -5.96       88.05       
N           33.66       -4.07       88.66       
C           34.02       -1.93       88.5        
C           34.32       -3.05       89.23       
C           31.27       -1.03       83.03       
C           31.18       0.19        83.67       
S           32.14       -2.09       84.15       
H           31.59       1.06        85.68       
H           30.87       1.03        83.17       
C           31.59       0.19        85.04       
C           32.18       -0.99       85.48       
C           32.27       -1.82       78.86       
C           31.9        -2.86       79.74       
C           32.34       -0.61       79.53       
N           31.14       -3.82       81.67       
N           31.56       -4.7        80.76       
N           31.87       -4.19       79.55       
C           30.96       -6.08       80.85       
H           32.78       0.27        79.07       
H           31.98       0.64        81.21       
H           30.81676    -6.4023     81.88136    
H           30.01       -6.12       80.27       
H           31.66559    -6.71285    80.31172    
C           31.87       -0.33       80.82       
C           31.48       -2.63       81.12       
C           31.4        -1.27       81.61       
C           33.67       -3.06       75.15       
C           33.77       -1.68       75.33       
S           32.92       -3.56       76.6        
H           33.41       -0.17       76.98       
H           34.33       -1.17       74.63       
C           33.24       -1.15       76.6        
C           32.73       -2.1        77.45       
C           35.0        -3.95       70.63       
C           34.54       -4.46       71.84       
N           35.25       -2.56       70.78       
C           34.8        -2.15       72.04       
C           34.17       -5.63       72.57       
O           34.23       -6.82       72.31       
O           34.84       -0.96       72.32       
C           33.5        -6.19       74.87       
C           36.28       -1.75       70.23       
H           37.23439    -1.91023    70.73157    
H           35.95       -0.63       70.18       
H           36.6        -2.07       69.24       
H           32.87       -5.88       75.65       
H           34.41384    -6.56545    75.33046    
H           32.89       -6.92       74.43       
N           33.8        -5.2        73.84       
C           34.39       -3.35       72.76       
C           33.96       -3.81       73.97       
C           36.73       -5.73       67.5        
C           36.39       -6.7        68.43       
S           36.0        -4.24       67.93       
H           35.49       -6.64       70.46       
H           36.59       -7.75       68.31       
C           35.76       -6.11       69.56       
C           35.48       -4.77       69.53       
C           38.04       -6.29       63.39       
C           37.26       -7.19       64.04       
C           38.43       -5.17       64.1        
N           35.97       -8.02       65.64       
N           35.77       -8.61       64.43       
N           36.55       -8.13       63.44       
C           34.67       -9.52       64.19       
H           39.0        -4.39       63.56       
H           38.24       -4.04       65.94       
H           35.01551    -10.49176   64.54271    
H           34.44       -9.54       63.14       
H           33.75088    -9.10918    64.60778    
C           38.02       -4.95       65.45       
C           36.87       -7.02       65.38       
C           37.25       -5.86       66.18       
H           66.25       26.48       85.87       
H           38.4        -6.41       62.35       
