472

C           58.5        34.41       89.53       
C           58.95       35.09       90.56       
S           57.65       32.97       90.07       
H           58.57       35.2        92.76       
H           59.42       36.05       90.49       
C           58.43       34.67       91.79       
C           57.7        33.47       91.77       
C           60.6        36.69       85.81       
C           59.63       35.85       86.25       
N           61.33       37.1        86.94       
C           60.74       36.51       88.11       
C           58.61       34.9        85.75       
O           58.18       34.81       84.67       
O           61.1        36.85       89.26       
C           56.91       33.52       86.84       
C           62.37       38.09       87.06       
H           61.95001    38.91598    87.63399    
H           62.65       38.35       86.02       
H           63.23       37.79       87.62       
H           56.32       33.61       87.78       
H           57.08645    32.46836    86.61414    
H           56.32       33.91       86.0        
N           58.09       34.28       86.94       
C           59.7        35.68       87.66       
C           58.85       34.72       88.1        
C           59.99       37.99       82.25       
C           61.3        38.08       82.45       
S           59.16       37.54       83.65       
H           62.66       37.59       84.09       
H           62.05       38.51       81.75       
C           61.66       37.53       83.69       
C           60.62       37.11       84.44       
C           57.34       38.98       78.86       
C           58.65       39.57       78.98       
C           57.02       38.08       79.9        
N           60.67       40.19       79.91       
N           60.41       40.85       78.76       
N           59.26       40.52       78.25       
C           61.04       42.07       78.21       
H           56.1        37.47       79.83       
H           57.6        37.15       81.61       
H           62.05568    42.14203    78.59898    
H           61.23       41.87       77.13       
H           60.52086    43.01138    78.38997    
C           57.91       37.85       80.92       
C           59.56       39.34       80.07       
C           59.21       38.36       81.07       
C           54.58       38.56       76.13       
C           55.52       39.48       75.64       
S           54.94       38.19       77.76       
H           57.41       40.34       76.26       
H           55.49       39.84       74.63       
C           56.59       39.74       76.53       
C           56.43       39.06       77.77       
C           51.08       35.44       75.18       
C           51.59       36.7        74.98       
N           51.93       34.72       76.05       
C           53.06       35.61       76.43       
C           51.39       37.95       74.27       
O           50.65       38.22       73.3        
O           53.78       35.4        77.35       
C           52.48       40.21       74.5        
C           52.09       33.3        76.25       
H           53.06762    32.99973    75.87292    
H           51.37       32.74       75.65       
H           51.94       33.02       77.32       
H           53.32       40.51       73.95       
H           52.20854    40.74613    75.40938    
H           51.61       40.42       73.82       
N           52.5        38.73       74.73       
C           52.83       36.8        75.64       
C           53.41       38.0        75.46       
C           48.62       33.69       72.69       
C           48.4        33.23       73.92       
S           49.8        34.92       72.62       
H           49.37       33.54       75.91       
H           47.72       32.48       74.15       
C           49.26       33.82       74.88       
C           50.01       34.86       74.35       
C           45.98       32.33       69.35       
C           47.1        33.15       69.01       
C           45.9        31.92       70.67       
N           49.01       34.26       69.49       
N           48.64       34.31       68.22       
N           47.55       33.67       67.82       
C           49.46       34.89       67.12       
H           45.04       31.35       70.98       
H           46.57       31.92       72.7        
H           50.52788    34.79229    67.31543    
H           49.39       34.35       66.1        
H           49.22021    35.94085    66.95779    
C           46.79       32.35       71.69       
C           48.04       33.55       70.1        
C           47.89       33.23       71.5        
C           42.63       31.56       67.32       
C           43.64       31.86       66.49       
S           43.28       31.74       68.95       
H           45.8        32.27       66.49       
H           43.42       32.01       65.45       
C           44.94       31.95       67.06       
C           44.92       32.03       68.42       
C           38.29       29.76       67.4        
C           39.12       30.88       67.24       
N           39.16       28.68       67.75       
C           40.52       29.09       67.71       
C           39.05       32.31       66.84       
O           38.21       33.09       66.41       
O           41.45       28.32       67.76       
C           40.98       33.81       66.21       
C           38.88       27.69       68.85       
H           38.85818    26.67917    68.44276    
H           39.75       27.67       69.45       
H           38.02       27.95       69.48       
H           41.77       33.81       65.44       
H           41.12555    34.48228    67.05555    
H           40.18       34.22       65.57       
N           40.45       32.53       66.59       
C           40.45       30.5        67.4        
C           41.25       31.46       67.04       
C           34.53       30.58       67.69       
C           34.64       29.22       67.76       
S           36.08       31.33       67.49       
H           36.37       27.76       67.73       
H           33.81       28.58       67.9        
C           36.05       28.81       67.73       
C           36.89       29.83       67.58       
C           30.95       33.14       67.12       
C           32.19       33.65       67.58       
C           30.96       31.75       66.99       
N           34.35       33.66       68.17       
N           33.76       34.81       68.04       
N           32.48       34.89       67.9        
C           34.57       35.99       68.01       
H           30.07       31.27       66.71       
H           31.92       29.94       66.87       
H           35.55404    35.78321    68.43071    
H           34.61       36.33       67.01       
H           34.0196     36.76354    68.54553    
C           32.08       30.94       67.2        
C           33.34       32.79       67.84       
C           33.33       31.39       67.62       
C           27.38       34.81       66.23       
C           28.35       35.74       66.36       
S           28.16       33.33       66.66       
H           30.46       36.08       66.65       
H           28.13       36.83       66.26       
C           29.72       35.3        66.57       
C           29.8        33.94       66.69       
C           23.21       37.1        67.03       
C           23.92       35.98       66.59       
N           24.1        38.11       67.29       
C           25.4        37.63       66.97       
C           23.64       34.62       66.11       
O           22.66       33.93       65.91       
O           26.31       38.45       66.88       
C           25.21       32.8        65.36       
C           23.94       39.3        68.18       
H           24.16637    39.05172    69.21693    
H           23.07       39.84       67.94       
H           24.63       39.98       67.74       
H           26.01       32.24       65.82       
H           25.48672    32.8761     64.30846    
H           24.19       32.33       65.42       
N           24.97       34.11       65.91       
C           25.3        36.2        66.67       
C           25.95       35.04       66.29       
C           19.32       37.71       67.41       
C           19.59       36.38       67.46       
S           20.8        38.61       67.2        
H           21.3        35.12       67.43       
H           18.78       35.63       67.49       
C           20.96       36.1        67.38       
C           21.78       37.14       67.21       
C           15.52       40.06       67.22       
C           15.57       38.6        67.09       
C           16.72       40.58       67.38       
N           16.43       36.57       67.23       
N           15.12       36.51       67.05       
N           14.53       37.72       66.96       
C           14.25       35.35       67.4        
H           16.76       41.65       67.45       
H           18.82       40.48       67.58       
H           14.61042    34.44174    66.91703    
H           13.97       35.2        68.47       
H           13.2859     35.56584    66.93954    
C           17.94       39.85       67.5        
C           16.79       37.85       67.22       
C           18.03       38.45       67.42       
C           12.37       42.12       66.25       
C           13.18       42.89       67.11       
S           13.03       40.46       66.31       
H           15.18       42.8        68.05       
H           13.01       43.9        67.3        
C           14.4        42.24       67.51       
C           14.44       40.93       67.12       
C           8.89        44.91       64.49       
C           9.5         43.7        64.51       
N           9.51        45.63       65.49       
C           10.67       44.98       66.09       
C           9.55        42.39       63.85       
O           8.93        41.86       62.89       
O           11.54       45.51       66.79       
C           10.23       40.25       64.61       
C           9.27        46.98       66.0        
H           8.80737     46.87486    66.98134    
H           8.6         47.53       65.35       
H           10.17       47.59       66.08       
H           10.4        39.92       65.64       
H           10.77468    39.69136    63.84885    
H           9.13        40.17       64.52       
N           10.54       41.64       64.5        
C           10.56       43.68       65.49       
C           11.22       42.43       65.45       
C           5.33        45.62       63.07       
C           5.99        44.92       62.2        
S           6.33        46.07       64.39       
H           7.87        43.79       62.15       
H           5.69        44.64       61.2        
C           7.26        44.56       62.69       
C           7.7         45.26       63.73       
C           1.36        47.57       62.94       
C           2.09        47.26       61.75       
C           2.02        47.21       64.03       
N           3.72        46.32       60.51       
N           2.74        46.85       59.72       
N           1.81        47.48       60.44       
C           3.15        47.28       58.39       
H           1.44        47.11       64.96       
H           3.8         46.44       65.06       
H           3.77633     46.50589    57.94664    
H           2.27        47.54       57.77       
H           3.73091     48.20219    58.40452    
C           3.36        46.67       64.08       
C           3.36        46.57       61.78       
C           4.05        46.3        62.94       
C           -2.54       48.04       63.33       
C           -2.08       48.98       62.46       
S           -1.17       47.2        64.01       
H           -0.09       49.54       61.61       
H           -2.72       49.54       61.82       
C           -0.68       49.0        62.31       
C           -0.04       48.0        62.97       
C           -7.16       48.12       62.42       
C           -6.17       48.01       63.37       
N           -6.55       48.0        61.18       
C           -5.13       48.12       61.32       
C           -5.97       47.99       64.84       
O           -6.73       47.96       65.88       
O           -4.25       48.17       60.45       
C           -3.85       47.68       66.18       
C           -7.1        47.62       59.89       
H           -6.54742    46.75166    59.53118    
H           -7.06       48.41       59.04       
H           -8.15       47.4        59.98       
H           -2.79       48.04       66.25       
H           -3.70384    46.61511    66.36096    
H           -4.39       48.12       66.98       
N           -4.54       47.85       64.92       
C           -4.89       48.07       62.74       
C           -3.94       47.91       63.66       
C           -10.95      49.19       62.73       
C           -10.61      48.37       63.79       
S           -9.62       49.24       61.65       
H           -8.76       47.36       64.59       
H           -11.29      48.03       64.5        
C           -9.2        48.0        63.81       
C           -8.55       48.31       62.65       
C           -14.9       50.86       61.55       
C           -14.74      50.04       62.7        
C           -13.73      51.13       60.9        
N           -13.79      48.59       64.13       
N           -15.14      48.67       64.23       
N           -15.74      49.51       63.43       
C           -15.93      47.64       64.84       
H           -13.75      51.68       59.95       
H           -11.66      50.82       60.72       
H           -15.75328   47.59052    65.91444    
H           -16.97      47.96       64.73       
H           -15.75834   46.62497    64.48175    
C           -12.5       50.62       61.36       
C           -13.49      49.4        63.04       
C           -12.28      49.7        62.37       
C           -18.49      51.47       59.81       
C           -17.66      52.5        59.51       
S           -17.68      50.37       60.88       
H           -15.57      53.18       59.95       
H           -18.01      53.28       58.83       
C           -16.3       52.37       60.07       
C           -16.17      51.3        60.95       
C           -22.63      49.04       59.22       
C           -21.91      50.24       59.2        
N           -21.71      48.06       59.55       
C           -20.35      48.61       59.72       
C           -22.13      51.61       58.89       
O           -23.07      52.19       58.51       
O           -19.37      47.98       60.02       
C           -20.91      53.68       59.47       
C           -21.85      46.63       59.86       
H           -21.8288    46.07869    58.91994    
H           -21.0       46.26       60.45       
H           -22.78      46.44       60.31       
H           -20.08      54.16       59.01       
H           -20.81646   53.8527     60.54216    
H           -21.82      54.22       59.09       
N           -20.85      52.23       59.12       
C           -20.5       50.08       59.47       
C           -19.88      51.27       59.35       
C           -26.5       49.52       59.61       
C           -26.17      48.2        59.26       
S           -25.01      50.38       59.83       
H           -24.3       47.1        58.54       
H           -26.88      47.39       59.16       
C           -24.78      48.02       58.85       
C           -24.08      49.11       59.1        
C           -29.6       50.81       62.45       
C           -28.73      51.67       61.83       
C           -29.5       49.46       62.0        
N           -27.13      52.38       60.47       
N           -27.6       53.35       61.13       
N           -28.53      53.01       62.04       
C           -26.83      54.57       61.02       
H           -30.07      48.73       62.53       
H           -28.46      47.89       60.71       
H           -26.08958   54.44307    60.23021    
H           -27.48      55.36       60.75       
H           -26.44053   54.93062    61.97203    
C           -28.53      49.01       61.0        
C           -27.83      51.31       60.74       
C           -27.7       49.92       60.32       
C           -32.25      51.43       65.37       
C           -31.34      52.38       65.49       
S           -31.87      50.39       63.99       
H           -29.39      52.92       64.48       
H           -31.38      53.09       66.36       
C           -30.27      52.26       64.5        
C           -30.47      51.27       63.58       
C           -33.72      50.78       69.85       
C           -34.06      50.86       68.49       
N           -32.36      50.64       69.88       
C           -31.77      50.84       68.56       
C           -35.22      51.04       67.57       
O           -36.45      51.08       67.73       
O           -30.51      50.8        68.33       
C           -35.35      51.61       65.11       
C           -31.58      49.85       70.86       
H           -30.81278   50.46941    71.32455    
H           -32.21      49.4        71.64       
H           -31.12      48.97       70.42       
H           -35.25      50.81       64.43       
H           -35.18187   52.59683    64.67872    
H           -36.39      51.42       65.33       
N           -34.57      51.34       66.31       
C           -32.91      51.03       67.68       
C           -33.23      51.17       66.37       
C           -35.65      50.88       73.44       
C           -36.44      51.22       72.37       
S           -34.15      50.54       72.67       
H           -36.48      51.13       70.16       
H           -37.49      51.4        72.51       
C           -35.89      51.11       71.07       
C           -34.52      50.9        71.02       
C           -36.64      49.81       77.68       
C           -35.33      49.95       77.25       
C           -37.59      50.02       76.71       
N           -33.62      50.36       75.78       
N           -33.19      50.02       77.01       
N           -34.15      49.82       77.92       
C           -31.88      50.53       77.45       
H           -38.63      50.04       77.06       
H           -38.09      50.71       74.77       
H           -31.36615   50.74821    76.51381    
H           -31.89      51.43       78.03       
H           -31.3688    49.7916     78.0677     
C           -37.24      50.45       75.35       
C           -35.0       50.3        75.84       
C           -35.96      50.55       74.84       
C           -38.11      47.69       80.56       
C           -37.07      48.39       81.07       
S           -38.31      48.28       78.92       
H           -35.51      49.85       80.49       
H           -36.69      48.25       82.09       
C           -36.44      49.38       80.21       
C           -37.04      49.48       79.01       
C           -41.31      44.15       80.6        
C           -40.16      44.6        81.1        
N           -41.86      45.18       79.8        
C           -41.03      46.34       79.81       
C           -39.0       44.29       81.92       
O           -38.6       43.31       82.46       
O           -41.35      47.31       79.15       
C           -36.87      45.41       82.61       
C           -42.75      45.12       78.62       
H           -42.22509   45.09813    77.66496    
H           -43.34      46.0        78.62       
H           -43.42      44.25       78.7        
H           -36.67      46.42       83.02       
H           -35.99648   45.07457    82.05095    
H           -36.94      44.72       83.41       
N           -38.12      45.42       81.8        
C           -39.89      45.98       80.62       
C           -38.7       46.4        81.01       
C           -43.38      40.8        80.75       
C           -42.3       40.65       81.53       
S           -43.5       42.43       80.39       
H           -40.34      41.8        81.95       
H           -42.05      39.71       82.02       
C           -41.34      41.76       81.42       
C           -41.84      42.84       80.73       
C           -46.53      38.1        79.17       
C           -45.68      37.73       80.27       
C           -46.35      39.46       78.78       
N           -44.05      38.02       81.79       
N           -44.55      36.8        81.73       
N           -45.57      36.52       80.95       
C           -43.96      35.71       82.56       
H           -47.02      39.95       78.11       
H           -45.42      41.27       78.97       
H           -43.14434   36.09257    83.17355    
H           -44.66      35.02       83.08       
H           -43.46932   35.06511    81.83099    
C           -45.4       40.3        79.36       
C           -44.74      38.66       80.78       
C           -44.5       39.94       80.31       
C           -49.44      36.51       77.07       
C           -49.13      35.61       78.08       
S           -48.53      37.93       77.36       
H           -47.67      35.52       79.77       
H           -49.47      34.56       78.12       
C           -48.1       36.05       78.93       
C           -47.53      37.23       78.61       
C           -53.33      34.5        74.78       
C           -52.43      35.57       74.98       
N           -52.93      33.53       75.83       
C           -51.74      33.91       76.53       
C           -52.09      36.87       74.46       
O           -52.6       37.58       73.64       
O           -51.25      33.29       77.4        
C           -50.16      38.34       74.64       
C           -53.56      32.21       76.04       
H           -52.8407    31.46277    75.70479    
H           -54.54      32.0        75.65       
H           -53.63      32.06       77.07       
H           -49.11      38.29       74.78       
H           -50.51624   39.2924     75.03259    
H           -50.29      38.25       73.5        
N           -50.89      37.25       75.2        
C           -51.38      35.19       75.95       
C           -50.5       36.3        76.1        
C           -56.44      33.75       72.34       
C           -56.15      35.09       72.32       
S           -55.31      33.01       73.41       
H           -54.82      36.47       73.33       
H           -56.79      35.74       71.76       
C           -55.07      35.43       73.15       
C           -54.45      34.42       73.9        
C           -59.74      31.51       70.46       
C           -58.59      30.92       71.02       
C           -59.64      32.89       70.53       
N           -56.51      30.71       71.91       
N           -57.19      29.52       71.73       
N           -58.34      29.61       71.15       
C           -56.48      28.29       71.79       
H           -60.42      33.47       70.08       
H           -58.61      34.68       71.16       
H           -55.45906   28.4318     71.43551    
H           -57.02      27.52       71.18       
H           -56.54478   27.80052    72.76176    
C           -58.55      33.61       71.1        
C           -57.47      31.64       71.56       
C           -57.49      33.01       71.66       
H           57.61       32.77       92.58       
H           -60.7       31.08       70.77       
