472

C           70.37       50.44       16.25       
C           69.99       51.45       15.4        
S           69.6        49.0        15.74       
H           68.98       51.54       13.36       
H           70.38       52.46       15.5        
C           69.2        51.02       14.26       
C           68.89       49.68       14.29       
C           72.77       52.59       19.75       
C           72.4        51.41       19.17       
N           72.29       53.62       18.99       
C           71.43       53.13       17.95       
C           72.47       49.98       19.31       
O           73.07       49.28       20.07       
O           70.9        53.81       17.12       
C           70.9        48.23       18.56       
C           72.14       55.06       19.07       
H           71.12484    55.27854    19.40134    
H           72.31       55.57       18.11       
H           72.94       55.48       19.68       
H           71.07       47.51       17.72       
H           69.93132    48.32125    19.05136    
H           71.64       47.7        19.16       
N           71.57       49.5        18.28       
C           71.56       51.68       18.08       
C           71.15       50.53       17.48       
C           74.45       53.4        23.26       
C           74.67       52.06       22.9        
S           73.39       54.17       22.03       
H           74.37       50.71       21.21       
H           75.17       51.4        23.56       
C           74.15       51.74       21.62       
C           73.52       52.78       20.95       
C           75.27       55.42       27.13       
C           75.21       53.98       27.03       
C           74.94       56.05       25.96       
N           75.04       51.97       26.05       
N           75.26       51.93       27.39       
N           75.3        53.05       28.0        
C           75.45       50.66       28.09       
H           74.91       57.11       25.86       
H           74.48       56.03       23.85       
H           75.2508     49.79451    27.45806    
H           76.47       50.68       28.5        
H           74.79736    50.68838    28.96256    
C           74.68       55.4        24.73       
C           74.94       53.29       25.8        
C           74.77       54.01       24.56       
C           75.97       56.87       30.71       
C           75.77       57.88       29.87       
S           75.67       55.39       29.93       
H           75.6        58.11       27.68       
H           75.85       58.93       30.29       
C           75.66       57.44       28.51       
C           75.54       56.09       28.38       
C           75.62       59.21       34.84       
C           75.91       58.02       34.26       
N           74.86       59.97       34.02       
C           75.09       59.54       32.68       
C           76.51       56.72       34.46       
O           76.93       56.14       35.41       
O           74.62       60.18       31.77       
C           77.65       55.19       32.94       
C           74.13       61.25       34.29       
H           74.81741    62.08624    34.16244    
H           73.91       61.31       35.38       
H           73.23       61.31       33.62       
H           78.23       55.33       32.04       
H           77.24191    54.18052    32.88988    
H           78.32       55.28       33.79       
N           76.65       56.26       33.12       
C           75.64       58.19       32.84       
C           75.96       57.05       32.13       
C           76.07       60.49       38.64       
C           76.52       59.22       38.54       
S           75.78       61.03       37.03       
H           76.66       57.57       37.04       
H           76.79       58.66       39.39       
C           76.44       58.62       37.23       
C           75.95       59.42       36.27       
C           76.46       63.33       41.94       
C           75.48       63.46       40.94       
C           77.28       62.28       41.72       
N           74.27       63.02       39.21       
N           73.87       64.08       39.81       
N           74.55       64.43       40.88       
C           73.08       65.04       39.08       
H           78.15       62.09       42.34       
H           77.96       60.7        40.59       
H           72.8926     64.58592    38.10697    
H           72.16       65.25       39.71       
H           73.63001    65.97573    38.98       
C           77.16       61.38       40.69       
C           75.34       62.55       39.84       
C           76.15       61.37       39.74       
C           76.86       66.43       44.62       
C           77.68       65.37       44.97       
S           76.25       66.02       43.02       
H           78.1        63.36       44.35       
H           78.23       65.34       45.86       
C           77.59       64.25       44.1        
C           76.78       64.33       42.97       
C           77.41       69.68       48.09       
C           76.72       69.23       47.03       
N           78.39       68.75       48.3        
C           78.31       67.63       47.35       
C           75.68       69.64       46.14       
O           75.22       70.71       45.99       
O           79.14       66.8        47.38       
C           75.12       69.04       43.75       
C           79.07       68.43       49.53       
H           80.13467    68.64436    49.43711    
H           78.67       68.99       50.38       
H           78.96       67.36       49.63       
H           74.52       68.23       43.38       
H           75.86775    69.40319    43.04498    
H           74.44       69.88       43.99       
N           75.69       68.64       45.05       
C           77.21       68.02       46.47       
C           76.56       67.61       45.37       
C           76.18       72.78       50.34       
C           77.53       72.62       50.5        
S           75.64       71.5        49.34       
H           79.16       71.42       49.67       
H           78.18       73.37       51.01       
C           78.08       71.62       49.74       
C           77.19       70.89       48.93       
C           73.0        75.6        51.21       
C           73.0        74.27       51.72       
C           74.04       75.91       50.36       
N           73.8        72.27       52.09       
N           72.64       72.51       52.69       
N           72.19       73.71       52.56       
C           71.79       71.51       53.24       
H           74.07       76.83       49.86       
H           75.95       75.29       49.46       
H           72.27233    70.55265    53.04268    
H           71.55       71.71       54.29       
H           70.83878    71.57341    52.71155    
C           75.13       75.0        50.14       
C           74.06       73.4        51.39       
C           75.13       73.72       50.62       
C           69.69       77.31       50.37       
C           70.37       78.28       51.05       
S           70.52       75.83       50.3        
H           72.45       78.43       51.79       
H           70.1        79.3        51.15       
C           71.66       77.77       51.37       
C           71.87       76.42       51.26       
C           66.4        76.99       46.93       
C           66.76       77.51       48.15       
N           67.49       76.27       46.49       
C           68.61       76.34       47.39       
C           66.32       78.35       49.27       
O           65.32       79.06       49.45       
O           69.6        75.62       47.25       
C           67.0        78.16       51.68       
C           67.7        75.57       45.2        
H           68.07599    76.25564    44.44064    
H           66.83       75.11       44.84       
H           68.33       74.73       45.29       
H           67.65       78.87       52.18       
H           66.85002    77.1887     52.15137    
H           66.05       78.7        51.65       
N           67.32       78.14       50.26       
C           68.1        77.07       48.51       
C           68.46       77.57       49.71       
C           63.14       77.33       44.75       
C           62.89       77.93       45.9        
S           64.69       76.53       44.72       
H           64.1        78.59       47.63       
H           61.98       78.53       46.0        
C           64.03       77.96       46.73       
C           65.11       77.16       46.29       
C           60.78       76.03       41.2        
C           61.99       76.87       41.1        
C           60.47       75.8        42.53       
N           63.91       77.71       41.82       
N           63.86       77.72       40.48       
N           62.7        77.2        40.01       
C           64.75       78.47       39.57       
H           59.53       75.25       42.74       
H           60.74       75.96       44.58       
H           65.15862    79.28724    40.16435    
H           65.55       77.78       39.16       
H           64.17527    78.86469    38.73214    
C           61.14       76.31       43.64       
C           62.74       77.23       42.22       
C           62.3        77.05       43.59       
C           57.91       74.7        38.75       
C           58.8        75.42       38.03       
S           58.52       74.54       40.36       
H           60.81       76.33       38.32       
H           58.72       75.62       36.97       
C           59.98       75.81       38.8        
C           59.87       75.57       40.12       
C           54.51       71.35       39.32       
C           55.38       72.01       38.46       
N           54.43       72.12       40.47       
C           55.32       73.25       40.4        
C           56.03       71.93       37.14       
O           56.0        71.17       36.18       
O           55.54       73.98       41.41       
C           57.64       73.35       35.89       
C           53.15       72.45       41.13       
H           52.75132    73.43621    40.89219    
H           53.26       72.45       42.21       
H           52.46       71.7        40.77       
H           58.6        73.74       36.08       
H           57.08364    73.82185    35.08011    
H           57.79       72.37       35.5        
N           56.86       73.07       37.09       
C           55.98       73.12       39.11       
C           56.95       73.73       38.3        
C           52.58       67.99       39.25       
C           52.94       68.33       38.01       
S           53.23       69.14       40.38       
H           53.92       70.13       37.0        
H           52.6        67.7        37.16       
C           53.63       69.57       37.91       
C           53.75       70.16       39.12       
C           51.23       64.32       41.22       
C           51.73       64.24       39.98       
C           51.0        65.62       41.66       
N           52.87       65.08       38.12       
N           53.01       63.74       38.3        
N           52.3        63.17       39.26       
C           53.88       62.98       37.44       
H           50.63       65.72       42.63       
H           51.02       67.72       41.41       
H           54.22766    63.60437    36.61696    
H           54.75       62.64       37.96       
H           53.33882    62.1536     36.97926    
C           51.2        66.77       40.95       
C           52.13       65.48       39.22       
C           51.89       66.82       39.69       
C           50.94       61.48       44.16       
C           51.39       60.97       43.04       
S           50.71       63.19       43.83       
H           51.95       61.56       40.97       
H           51.73       59.92       42.95       
C           51.44       61.85       41.91       
C           51.09       63.17       42.13       
C           51.9        58.26       47.6        
C           51.41       59.49       47.31       
N           52.39       57.66       46.48       
C           52.05       58.37       45.29       
C           50.76       60.65       47.87       
O           50.49       61.07       48.99       
O           52.16       58.03       44.12       
C           49.55       62.59       46.92       
C           53.42       56.63       46.33       
H           53.19254    55.89785    45.5552     
H           53.38       55.93       47.17       
H           54.43       57.08       46.22       
H           48.8        62.71       46.18       
H           50.10723    63.52116    47.02265    
H           48.96       62.4        47.79       
N           50.44       61.46       46.71       
C           51.44       59.64       45.86       
C           50.95       60.92       45.5        
C           53.32       57.93       51.17       
C           52.93       56.66       50.79       
S           53.0        59.08       49.91       
H           52.11       55.82       48.96       
H           52.96       55.8        51.38       
C           52.47       56.69       49.47       
C           52.32       57.89       48.88       
C           54.96       59.4        55.13       
C           54.65       58.03       54.91       
C           54.82       60.19       53.94       
N           53.93       56.17       53.78       
N           54.47       55.97       54.99       
N           54.93       56.97       55.72       
C           54.78       54.65       55.43       
H           55.28       61.19       53.8        
H           53.99       60.5        51.95       
H           54.33126    53.92622    54.74965    
H           55.87       54.59       55.4        
H           54.47532    54.50105    56.4659     
C           54.16       59.75       52.71       
C           54.09       57.49       53.6        
C           53.85       58.38       52.47       
C           57.42       60.98       57.65       
C           56.77       60.01       58.4        
S           56.73       61.14       56.03       
H           55.43       58.41       57.78       
H           57.02       59.75       59.4        
C           55.89       59.31       57.52       
C           55.61       59.87       56.26       
C           60.74       62.82       60.68       
C           60.11       62.81       59.48       
N           60.19       61.71       61.34       
C           59.16       61.09       60.6        
C           60.18       63.53       58.27       
O           61.01       64.27       57.87       
O           58.54       60.14       61.0        
C           59.14       63.12       56.06       
C           60.87       60.91       62.34       
H           61.71282    60.42839    61.84422    
H           61.17       61.42       63.25       
H           60.25       60.09       62.63       
H           58.11       63.2        55.69       
H           59.64854    62.37132    55.45258    
H           59.56       64.14       55.87       
N           59.14       62.89       57.46       
C           59.11       61.78       59.37       
C           58.52       61.83       58.16       
C           62.53       66.08       61.83       
C           63.26       65.0        62.29       
S           61.33       65.5        60.83       
H           63.05       62.83       62.42       
H           64.08       65.2        62.95       
C           62.69       63.71       62.03       
C           61.66       63.81       61.12       
C           62.97       70.46       62.03       
C           64.09       69.56       62.12       
C           61.81       69.77       61.87       
N           65.23       67.61       62.08       
N           65.93       68.67       62.09       
N           65.4        69.85       62.1        
C           67.34       68.43       62.28       
H           60.89       70.35       61.65       
H           60.63       67.98       61.71       
H           67.62299    67.39003    62.44272    
H           67.83       68.84       61.42       
H           67.6902     69.02096    63.12631    
C           61.65       68.34       61.9        
C           63.99       68.1        62.03       
C           62.76       67.49       61.88       
C           62.28       74.37       61.84       
C           63.62       74.11       61.72       
S           61.49       72.83       61.98       
H           65.05       72.46       61.86       
H           64.32       74.89       61.58       
C           64.02       72.82       61.92       
C           62.99       71.9        61.97       
C           61.78       78.54       59.65       
C           61.29       77.6        60.5        
N           63.02       78.09       59.29       
C           63.44       76.91       59.99       
C           60.07       77.28       61.22       
O           58.95       77.83       61.25       
O           64.5        76.33       59.78       
C           59.17       75.39       62.38       
C           64.13       78.85       58.76       
H           64.35953    79.62467    59.49164    
H           65.07       78.21       58.62       
H           63.86       79.27       57.8        
H           59.52       74.72       63.09       
H           58.63819    74.78019    61.64965    
H           58.58       76.15       62.95       
N           60.31       75.98       61.78       
C           62.23       76.64       60.73       
C           61.62       75.6        61.45       
C           60.02       81.63       57.83       
C           59.28       81.24       58.96       
S           61.47       80.66       57.75       
H           59.56       79.91       60.69       
H           58.34       81.76       59.21       
C           59.98       80.24       59.72       
C           61.1        79.74       59.23       
C           59.07       85.0        54.87       
C           58.08       84.34       55.66       
C           60.25       84.34       55.07       
N           57.18       82.82       57.08       
N           56.32       83.62       56.59       
N           56.72       84.55       55.76       
C           54.89       83.49       56.94       
H           61.08       84.69       54.5        
H           61.52       82.85       55.88       
H           54.71194    82.7849     57.75193    
H           54.65       84.52       57.1        
H           54.32447    83.1828     56.06028    
C           60.53       83.32       55.98       
C           58.36       83.3        56.68       
C           59.68       82.68       56.84       
C           57.56       87.4        51.91       
C           58.95       87.56       51.98       
S           57.15       86.54       53.37       
H           60.71       86.62       53.09       
H           59.47       88.0        51.12       
C           59.63       86.74       53.0        
C           58.76       86.01       53.79       
C           56.04       90.28       48.4        
C           55.73       89.45       49.4        
N           57.41       90.58       48.67       
C           58.04       89.69       49.56       
C           54.67       88.71       50.03       
O           53.46       88.65       49.8        
O           59.17       89.86       50.0        
C           54.3        87.02       51.86       
C           58.21       91.71       48.23       
H           58.8454     91.38865    47.40471    
H           58.81       92.14       49.07       
H           57.56       92.4        47.86       
H           54.42       87.32       52.87       
H           54.3499     85.93641    51.75307    
H           53.25       87.34       51.65       
N           55.27       87.77       50.96       
C           56.93       88.85       50.0        
C           56.63       87.96       50.98       
C           53.85       91.83       45.56       
C           53.07       91.64       46.64       
S           55.57       91.47       45.96       
H           53.28       90.42       48.46       
H           52.02       91.74       46.57       
C           53.76       90.88       47.63       
C           55.07       90.88       47.49       
C           52.77       93.57       41.66       
C           51.86       93.02       42.52       
C           54.07       93.36       42.03       
N           50.96       92.08       44.37       
N           50.05       92.36       43.39       
N           50.5        93.12       42.46       
C           48.61       92.16       43.5        
H           54.82       93.77       41.41       
H           55.49       92.81       43.58       
H           48.33925    91.26226    44.05575    
H           48.26       93.06       43.97       
H           48.20027    92.03562    42.49763    
C           54.41       92.78       43.25       
C           52.17       92.42       43.79       
C           53.51       92.29       44.19       
C           52.21       95.77       38.43       
C           51.46       94.62       38.28       
S           53.14       95.65       39.87       
H           50.9        92.87       39.5        
H           50.8        94.48       37.43       
C           51.48       93.84       39.49       
C           52.46       94.15       40.37       
C           52.0        98.09       34.27       
C           52.03       98.14       35.65       
N           52.11       96.79       33.92       
C           52.29       95.9        35.12       
C           52.02       99.09       36.77       
O           51.78       100.29      36.89       
O           52.3        94.69       35.05       
C           51.78       98.75       39.2        
C           52.54       96.25       32.65       
H           51.72356    95.64687    32.25281    
H           53.57       95.85       32.76       
H           52.73       97.16       32.01       
H           52.42       98.38       40.0        
H           50.72946    98.85285    39.47182    
H           52.13       99.78       39.13       
N           52.04       98.17       37.9        
C           52.13       96.84       36.19       
C           52.23       96.87       37.53       
C           50.79       101.12      32.03       
C           51.56       101.55      33.09       
S           50.96       99.39       32.02       
H           52.8        100.64      34.78       
H           51.71       102.61      33.27       
C           52.16       100.52      33.89       
C           51.92       99.26       33.44       
C           48.43       103.2       28.84       
C           49.08       103.9       29.86       
C           48.49       101.82      28.97       
N           50.22       104.13      31.88       
N           49.59       105.2       31.44       
N           49.05       105.14      30.23       
C           48.96       106.08      32.45       
H           47.92       101.15      28.26       
H           49.42       100.07      29.94       
H           48.35926    105.50753   33.15675    
H           48.42       106.84      31.91       
H           49.75682    106.63002   32.95066    
C           49.34       101.16      29.96       
C           49.89       103.25      30.9        
C           50.07       101.85      30.98       
H           67.87       49.41       13.99       
H           48.61       103.61      27.83       
