472

C           4.87        10.0        68.0        
C           5.16        10.56       66.75       
S           5.55        11.03       69.22       
H           6.53        12.19       66.0        
H           4.7         10.19       65.84       
C           6.07        11.66       66.88       
C           6.31        12.2        68.15       
C           1.37        6.91        66.96       
C           2.43        7.31        67.81       
N           1.4         7.77        65.9        
C           2.32        8.85        66.07       
C           3.01        7.01        69.08       
O           3.01        6.1         69.94       
O           2.47        9.78        65.28       
C           4.92        7.98        70.4        
C           0.93        7.54        64.52       
H           1.70383     7.13118     63.87027    
H           0.44        8.49        64.15       
H           0.05        6.89        64.49       
H           5.07        8.99        70.78       
H           5.82215     7.39289     70.22816    
H           4.41        7.47        71.18       
N           4.06        8.0         69.24       
C           3.02        8.51        67.32       
C           3.98        8.95        68.2        
C           -1.28       3.9         67.12       
C           -0.43       3.84        68.21       
S           -0.7        5.17        66.08       
H           1.29        5.07        68.89       
H           -0.45       3.12        68.98       
C           0.59        4.86        68.11       
C           0.52        5.71        67.08       
C           -4.35       1.09        65.53       
C           -3.69       0.97        66.79       
C           -4.0        2.31        64.98       
N           -2.26       1.53        68.58       
N           -2.86       0.33        68.69       
N           -3.67       -0.1        67.68       
C           -3.41       0.02        70.02       
H           -4.57       2.55        64.11       
H           -2.84       4.15        64.95       
H           -2.65576    0.15054     70.796      
H           -4.25       0.69        70.24       
H           -3.78548    -1.00213    69.97133    
C           -3.02       3.28        65.53       
C           -2.74       1.89        67.41       
C           -2.43       3.11        66.72       
C           -6.52       -1.33       63.17       
C           -6.36       -1.98       64.36       
S           -5.81       0.25        63.22       
H           -5.57       -1.5        66.39       
H           -6.73       -2.96       64.61       
C           -5.68       -1.16       65.33       
C           -5.25       0.07        64.86       
C           -9.65       -1.96       59.57       
C           -8.47       -2.47       60.22       
N           -9.87       -0.65       60.04       
C           -8.85       -0.26       61.01       
C           -7.6        -3.63       60.39       
O           -7.56       -4.8        59.92       
O           -8.87       0.73        61.73       
C           -5.56       -4.12       61.84       
C           -10.43      0.51        59.32       
H           -9.63265    1.16104     58.96156    
H           -11.14      1.13        59.9        
H           -10.91      0.19        58.4        
H           -5.44       -4.06       62.91       
H           -4.70647    -3.84467    61.2205     
H           -5.91       -5.12       61.58       
N           -6.75       -3.27       61.52       
C           -8.06       -1.45       61.17       
C           -7.1        -1.98       62.02       
C           -12.32      -3.63       57.01       
C           -11.27      -4.45       57.24       
S           -11.96      -2.09       57.7        
H           -9.48       -4.46       58.66       
H           -11.29      -5.51       56.91       
C           -10.28      -3.89       58.2        
C           -10.53      -2.6        58.61       
C           -16.01      -4.13       54.67       
C           -15.08      -5.15       54.82       
C           -15.76      -3.02       55.4        
N           -13.12      -6.11       55.32       
N           -13.91      -6.91       54.59       
N           -15.16      -6.4        54.33       
C           -13.83      -8.35       54.72       
H           -16.47      -2.26       55.4        
H           -14.44      -1.99       56.77       
H           -12.87835   -8.73638    54.35508    
H           -13.88      -8.56       55.79       
H           -14.68066   -8.80322    54.211      
C           -14.57      -2.9        56.14       
C           -13.8       -4.96       55.45       
C           -13.56      -3.79       56.22       
C           -19.59      -4.26       52.98       
C           -19.19      -5.55       53.17       
S           -18.36      -3.16       53.58       
H           -17.38      -6.56       54.01       
H           -19.87      -6.3        52.83       
C           -17.93      -5.66       53.75       
C           -17.34      -4.45       54.1        
C           -24.28      -4.61       52.05       
C           -23.13      -3.82       52.04       
N           -23.86      -5.84       52.44       
C           -22.53      -5.92       52.77       
C           -22.68      -2.5        51.74       
O           -23.21      -1.48       51.4        
O           -22.04      -6.95       53.23       
C           -20.51      -1.39       51.74       
C           -24.5       -7.12       52.16       
H           -24.89086   -7.44804    53.12318    
H           -25.33      -7.0        51.45       
H           -23.77      -7.9        51.75       
H           -19.53      -1.73       51.48       
H           -20.54616   -0.61607    52.5067     
H           -21.02      -0.87       50.92       
N           -21.33      -2.57       52.1        
C           -22.03      -4.56       52.5        
C           -20.92      -3.77       52.59       
C           -28.06      -3.87       51.4        
C           -27.41      -2.81       50.88       
S           -27.02      -5.1        52.17       
H           -25.33      -2.38       50.66       
H           -27.82      -1.95       50.38       
C           -26.02      -3.04       51.01       
C           -25.63      -4.23       51.61       
C           -32.52      -4.05       51.83       
C           -31.71      -5.17       51.93       
C           -31.78      -2.91       51.57       
N           -29.91      -6.36       52.18       
N           -30.92      -7.17       52.26       
N           -32.1       -6.5        52.1        
C           -30.82      -8.46       52.91       
H           -32.44      -2.05       51.54       
H           -30.03      -1.87       51.15       
H           -29.92205   -8.52217    53.52475    
H           -31.69      -8.46       53.54       
H           -30.94986   -9.25357    52.17414    
C           -30.39      -2.8        51.42       
C           -30.3       -5.14       51.84       
C           -29.57      -3.92       51.52       
C           -36.41      -3.37       52.19       
C           -36.22      -4.74       51.89       
S           -34.88      -2.6        52.15       
H           -34.53      -6.11       51.46       
H           -37.06      -5.49       51.92       
C           -34.87      -5.11       51.74       
C           -33.96      -4.06       51.87       
C           -40.98      -2.55       51.19       
C           -39.78      -2.09       51.68       
N           -40.73      -3.85       50.73       
C           -39.41      -4.31       51.18       
C           -39.15      -0.92       52.27       
O           -39.6       0.2         52.53       
O           -39.04      -5.41       50.84       
C           -37.14      -0.69       53.8        
C           -41.67      -4.73       50.09       
H           -41.26081   -5.06023    49.13522    
H           -42.64      -4.21       49.92       
H           -41.85      -5.57       50.71       
H           -36.03      -0.51       53.63       
H           -37.09105   -1.37534    54.64618    
H           -37.52      0.37        53.97       
N           -37.81      -1.34       52.68       
C           -38.84      -3.1        51.72       
C           -37.62      -2.65       52.19       
C           -43.73      0.13        50.5        
C           -44.35      -1.04       50.73       
S           -42.02      -0.21       50.22       
H           -43.76      -3.09       51.53       
H           -45.41      -1.15       50.98       
C           -43.42      -2.12       51.08       
C           -42.12      -1.78       50.92       
C           -45.19      4.32        50.33       
C           -46.0       3.22        50.13       
C           -43.88      3.96        50.63       
N           -46.58      1.08        50.07       
N           -47.64      1.89        49.89       
N           -47.33      3.19        49.89       
C           -48.95      1.25        49.77       
H           -43.08      4.76        50.97       
H           -42.37      2.6         50.7        
H           -48.90789   0.16226     49.71386    
H           -49.53      1.53        50.66       
H           -49.47987   1.72335     48.9434     
C           -43.41      2.65        50.57       
C           -45.51      1.87        50.13       
C           -44.19      1.51        50.37       
C           -45.65      8.05        51.17       
C           -46.25      7.92        50.01       
S           -44.92      6.57        51.68       
H           -46.72      6.23        48.62       
H           -46.71      8.7         49.39       
C           -46.36      6.51        49.58       
C           -45.59      5.72        50.38       
C           -45.05      12.79       51.77       
C           -45.02      11.5        52.28       
N           -45.71      12.71       50.55       
C           -46.08      11.37       50.26       
C           -44.67      10.76       53.46       
O           -44.32      11.08       54.59       
O           -46.63      11.09       49.24       
C           -45.44      8.56        54.31       
C           -46.4       13.73       49.81       
H           -46.03878   13.80224    48.78413    
H           -46.46      14.71       50.31       
H           -47.52      13.58       49.71       
H           -45.3       7.5         54.1        
H           -46.34506   8.78805     54.87299    
H           -44.7       8.85        55.07       
N           -45.12      9.42        53.17       
C           -45.53      10.56       51.34       
C           -45.4       9.3         51.82       
C           -42.45      15.19       53.48       
C           -43.27      15.95       52.63       
S           -42.9       13.48       53.33       
H           -45.07      15.49       51.47       
H           -43.28      17.04       52.63       
C           -44.28      15.12       52.09       
C           -44.24      13.83       52.32       
C           -38.97      16.19       56.14       
C           -39.58      17.16       55.26       
C           -39.6       14.95       56.0        
N           -41.0       17.91       53.66       
N           -40.1       18.77       54.16       
N           -39.18      18.39       54.97       
C           -40.42      20.2        54.05       
H           -39.34      14.11       56.62       
H           -41.23      13.73       55.22       
H           -40.89169   20.42197    53.09275    
H           -41.11      20.5        54.82       
H           -39.53088   20.81883    54.17092    
C           -40.71      14.66       55.19       
C           -40.75      16.84       54.47       
C           -41.33      15.54       54.37       
C           -35.79      17.2        58.27       
C           -36.13      15.89       58.49       
S           -36.83      17.9        57.1        
H           -37.76      14.47       57.98       
H           -35.54      15.36       59.23       
C           -37.28      15.48       57.85       
C           -37.79      16.44       56.97       
C           -31.28      17.48       60.12       
C           -32.42      18.13       59.67       
N           -31.47      16.1        60.08       
C           -32.81      15.85       59.65       
C           -32.93      19.45       59.3        
O           -32.59      20.62       59.51       
O           -33.18      14.69       59.41       
C           -35.16      20.23       58.62       
C           -30.8       15.0        60.61       
H           -31.13167   14.82034    61.63265    
H           -29.78      15.17       60.54       
H           -31.04      14.18       59.95       
H           -36.14      19.92       58.73       
H           -35.05454   20.70106    57.64272    
H           -35.03      21.0        59.4        
N           -34.25      19.16       58.86       
C           -33.37      17.16       59.21       
C           -34.52      17.79       58.73       
C           -27.67      18.93       61.27       
C           -28.45      19.86       60.63       
S           -28.55      17.41       61.2        
H           -30.38      20.07       59.69       
H           -28.17      20.84       60.52       
C           -29.71      19.41       60.2        
C           -29.99      18.09       60.4        
C           -23.42      19.09       62.43       
C           -24.2       17.96       62.74       
C           -24.09      20.12       61.91       
N           -26.06      16.89       63.11       
N           -25.06      16.13       63.5        
N           -23.92      16.76       63.33       
C           -25.18      14.95       64.29       
H           -23.56      21.01       61.57       
H           -25.79      20.78       60.78       
H           -26.0371    14.33177    64.02304    
H           -24.25      14.37       64.1        
H           -25.23791   15.21058    65.34681    
C           -25.49      20.07       61.51       
C           -25.59      17.95       62.43       
C           -26.34      19.04       61.88       
C           -19.63      20.12       63.41       
C           -19.9       18.82       63.76       
S           -21.06      20.55       62.57       
H           -21.52      17.39       63.91       
H           -19.17      18.19       64.2        
C           -21.21      18.32       63.52       
C           -22.03      19.18       62.8        
C           -15.45      21.35       65.31       
C           -16.56      21.76       64.67       
N           -15.55      20.08       65.77       
C           -16.86      19.65       65.36       
C           -17.22      22.88       64.01       
O           -17.11      24.1        63.9        
O           -17.21      18.54       65.61       
C           -18.91      22.94       62.17       
C           -14.59      19.1        66.15       
H           -13.98388   18.78649    65.30004    
H           -14.02      19.39       67.02       
H           -15.15      18.24       66.51       
H           -19.99      23.04       62.24       
H           -18.61658   22.46767    61.2325     
H           -18.39      23.9        62.03       
N           -18.34      22.31       63.29       
C           -17.44      20.68       64.51       
C           -18.54      21.0        63.74       
C           -12.79      24.28       65.87       
C           -12.25      23.09       66.27       
S           -14.35      23.96       65.17       
H           -12.78      21.03       66.48       
H           -11.29      22.89       66.71       
C           -13.07      21.98       66.1        
C           -14.28      22.25       65.47       
C           -11.33      28.45       65.54       
C           -10.58      27.45       66.28       
C           -12.46      27.95       64.94       
N           -10.07      25.4        67.14       
N           -9.1        26.26       67.35       
N           -9.35       27.49       66.84       
C           -7.92       25.86       68.07       
H           -13.21      28.58       64.43       
H           -13.98      26.51       64.89       
H           -7.89097    24.77126    68.11355    
H           -7.12       26.28       67.47       
H           -7.95701    26.32635    69.05451    
C           -12.96      26.67       65.2        
C           -11.02      26.06       66.39       
C           -12.26      25.66       65.88       
C           -11.3       32.32       64.99       
C           -10.26      32.06       65.84       
S           -12.14      30.87       64.64       
H           -9.34       30.19       66.75       
H           -9.81       32.85       66.28       
C           -10.07      30.63       66.05       
C           -10.99      29.88       65.4        
C           -14.75      35.25       63.76       
C           -13.41      35.03       63.83       
N           -15.34      34.27       64.52       
C           -14.44      33.29       65.03       
C           -12.11      35.57       63.4        
O           -11.74      36.52       62.71       
O           -14.79      32.33       65.68       
C           -9.82       35.1        64.22       
C           -16.72      34.09       64.75       
H           -17.16556   33.5609     63.90761    
H           -16.95      33.58       65.62       
H           -17.2       35.02       64.95       
H           -9.04       34.31       64.06       
H           -9.64581    35.52823    65.2071     
H           -9.59       35.77       63.33       
N           -11.18      34.63       63.98       
C           -13.15      33.86       64.6        
C           -11.79      33.64       64.65       
C           -16.94      37.97       61.93       
C           -15.68      37.88       61.41       
S           -17.01      36.81       63.19       
H           -13.7       36.84       61.68       
H           -15.45      38.51       60.62       
C           -14.8       36.96       62.04       
C           -15.38      36.25       63.0        
C           -20.43      39.82       60.15       
C           -20.52      39.21       61.43       
C           -19.14      39.93       59.61       
N           -19.76      38.0        63.16       
N           -21.03      38.19       63.23       
N           -21.53      38.84       62.16       
C           -21.77      37.41       64.2        
H           -18.94      40.44       58.66       
H           -17.03      39.58       59.74       
H           -21.0737    36.89316    64.86041    
H           -22.32      38.12       64.73       
H           -22.4118    36.70257    63.67489    
C           -17.97      39.43       60.26       
C           -19.37      38.6        61.97       
C           -18.07      38.72       61.47       
C           -23.65      41.9        58.95       
C           -23.04      41.31       57.95       
S           -22.68      41.51       60.32       
H           -21.22      39.98       57.42       
H           -23.4       41.35       56.95       
C           -21.84      40.55       58.16       
C           -21.55      40.46       59.46       
C           -27.21      44.56       60.81       
C           -26.7       43.68       59.81       
N           -26.17      44.67       61.73       
C           -24.99      43.95       61.29       
C           -27.13      42.93       58.67       
O           -28.15      42.85       58.03       
O           -24.03      43.85       62.04       
C           -26.01      41.42       56.96       
C           -25.92      45.6        62.84       
H           -25.12563   46.29253    62.56163    
H           -25.93      45.13       63.77       
H           -26.75      46.22       62.92       
H           -25.35      40.54       56.94       
H           -25.81269   41.97671    56.0439     
H           -27.03      40.95       57.0        
N           -25.97      42.26       58.15       
C           -25.33      43.33       59.99       
C           -24.92      42.48       59.02       
C           -30.82      45.91       61.76       
C           -30.71      45.65       60.46       
S           -29.31      45.52       62.48       
H           -29.18      44.87       59.06       
H           -31.49      45.79       59.71       
C           -29.41      45.17       60.03       
C           -28.5       45.2        60.98       
C           -34.49      47.21       63.8        
C           -33.26      47.21       64.48       
C           -34.31      46.81       62.48       
N           -31.04      47.05       64.69       
N           -31.58      47.36       65.81       
N           -32.9       47.49       65.76       
C           -30.92      47.13       67.12       
H           -35.24      46.79       61.81       
H           -33.16      46.21       60.78       
H           -29.87561   46.83786    67.01045    
H           -30.96      48.03       67.72       
H           -31.43049   46.30045    67.60922    
C           -33.17      46.35       61.84       
C           -32.05      46.87       63.79       
C           -32.02      46.35       62.48       
C           -37.93      49.06       64.47       
C           -37.43      48.59       65.71       
S           -36.95      48.28       63.24       
H           -35.69      47.44       66.47       
H           -37.78      48.9        66.66       
C           -36.21      47.78       65.59       
C           -35.76      47.63       64.31       
C           -40.95      51.4        61.58       
C           -40.61      50.94       62.85       
N           -40.0       50.85       60.7        
C           -38.88      50.29       61.44       
C           -41.03      51.11       64.24       
O           -42.02      51.62       64.68       
O           -37.77      50.03       60.99       
C           -40.06      50.38       66.41       
C           -40.2       50.4        59.31       
H           -40.03442   49.32373    59.26171    
H           -39.62      51.04       58.6        
H           -41.23      50.65       59.02       
H           -39.08      50.65       66.86       
H           -40.39021   49.48069    66.92991    
H           -40.82      51.2        66.63       
N           -40.09      50.33       64.97       
C           -39.4       50.17       62.82       
C           -39.11      49.79       64.14       
C           -43.41      54.2        60.35       
C           -43.91      53.58       61.45       
S           -41.86      53.62       60.01       
H           -43.33      51.92       62.75       
H           -44.86      53.91       61.91       
C           -43.16      52.46       61.85       
C           -42.01      52.23       61.12       
C           -44.44      58.04       58.41       
C           -45.14      57.59       59.59       
C           -43.5       57.11       57.97       
N           -45.42      56.28       61.34       
N           -46.28      57.33       61.32       
N           -46.16      58.13       60.3        
C           -47.4       57.53       62.32       
H           -42.8       57.41       57.21       
H           -42.41      55.32       58.15       
H           -47.38561   56.68104    63.00349    
H           -48.33      57.48       61.74       
H           -47.2764    58.48975    62.82169    
C           -43.23      55.89       58.53       
C           -44.76      56.38       60.19       
C           -43.8       55.47       59.72       
H           6.42        13.26       68.34       
H           -44.92      58.73       57.71       
