472

C           15.61       25.74       87.54       
C           14.35       26.14       87.02       
S           16.37       27.15       88.18       
H           13.18       28.09       87.03       
H           13.65       25.4        86.56       
C           14.1        27.56       87.16       
C           15.22       28.18       87.49       
C           15.13       20.98       87.67       
C           16.0        22.06       87.73       
N           13.84       21.44       87.61       
C           13.82       22.88       87.78       
C           17.42       22.44       87.85       
O           18.46       21.87       87.89       
O           12.78       23.54       87.91       
C           18.44       24.65       87.38       
C           12.62       20.63       87.65       
H           12.26192    20.63746    88.67948    
H           12.71       19.53       87.5        
H           11.82       21.1        87.0        
H           18.48       25.66       87.95       
H           18.46925    24.65       86.29039    
H           19.29       24.07       87.8        
N           17.33       23.88       87.75       
C           15.22       23.25       87.71       
C           16.0        24.37       87.8        
C           16.2        17.15       87.76       
C           17.07       17.83       87.02       
S           14.93       18.2        88.28       
H           17.49       19.89       86.44       
H           18.03       17.4        86.76       
C           16.74       19.24       86.9        
C           15.56       19.6        87.45       
C           16.44       13.05       89.55       
C           15.34       13.55       88.84       
C           17.42       14.05       89.62       
N           14.01       14.97       87.71       
N           13.42       13.81       87.96       
N           14.14       12.96       88.65       
C           12.07       13.47       87.55       
H           18.42       13.86       90.02       
H           18.07       16.12       89.28       
H           11.5618     14.38197    87.23673    
H           12.1        12.65       86.85       
H           11.61719    13.1544     88.48993    
C           17.33       15.39       89.0        
C           15.21       14.93       88.28       
C           16.31       15.8        88.24       
C           18.0        9.67        90.24       
C           16.67       9.44        90.14       
S           18.35       11.33       90.03       
H           14.78       10.63       89.91       
H           16.27       8.45        90.08       
C           15.91       10.59       89.92       
C           16.66       11.72       89.95       
C           22.39       8.01        89.47       
C           21.08       7.86        89.77       
N           22.4        9.36        89.13       
C           21.26       10.09       89.6        
C           20.18       6.77        90.06       
O           20.36       5.55        90.23       
O           21.28       11.3        89.44       
C           17.96       6.65        91.39       
C           23.25       10.05       88.18       
H           22.61744    10.28126    87.32298    
H           23.96       9.44        87.7        
H           23.84       10.85       88.55       
H           17.1        6.24        90.82       
H           17.70294    7.19191     92.30014    
H           18.52       5.78        91.73       
N           18.9        7.41        90.51       
C           20.31       9.05        89.83       
C           19.0        8.7         90.11       
C           24.44       5.19        87.86       
C           25.31       6.22        88.18       
S           22.82       5.45        88.31       
H           25.05       8.27        89.23       
H           26.36       6.18        87.85       
C           24.6        7.29        88.83       
C           23.25       7.01        89.0        
C           25.82       1.54        85.84       
C           26.28       2.81        85.4        
C           24.9        1.61        86.87       
N           26.4        5.02        85.45       
N           27.22       4.53        84.51       
N           27.22       3.18        84.48       
C           27.74       5.26        83.35       
H           24.53       0.63        87.23       
H           23.66       2.63        88.29       
H           27.7116     6.33938     83.49912    
H           28.74       4.99        83.34       
H           27.31468    4.88601     82.41869    
C           24.44       2.74        87.5        
C           25.76       3.96        85.98       
C           24.83       3.98        87.08       
C           27.21       -1.99       84.98       
C           27.31       -1.18       83.82       
S           26.32       -1.11       86.23       
H           26.81       0.87        83.18       
H           27.69       -1.52       82.92       
C           26.8        0.12        83.99       
C           26.27       0.33        85.23       
C           29.31       -6.02       83.62       
C           28.77       -5.31       84.64       
N           29.2        -5.31       82.44       
C           28.56       -4.09       82.71       
C           28.48       -5.37       86.1        
O           28.59       -6.3        86.93       
O           28.25       -3.37       81.8        
C           26.97       -4.01       87.47       
C           29.49       -5.63       81.12       
H           28.68094    -6.24708    80.72918    
H           29.67       -4.8        80.46       
H           30.42       -6.24       81.03       
H           25.93       -3.72       87.21       
H           27.41165    -3.43079    88.2809     
H           27.0        -4.99       87.94       
N           27.81       -4.09       86.3        
C           28.26       -4.1        84.15       
C           27.7        -3.33       85.11       
C           32.26       -8.27       84.77       
C           31.88       -8.7        83.51       
S           31.24       -7.01       85.34       
H           30.18       -8.16       82.1        
H           32.37       -9.47       83.06       
C           30.68       -7.96       83.0        
C           30.26       -7.05       83.93       
C           36.28       -9.05       86.71       
C           35.63       -9.98       85.84       
C           35.47       -7.96       86.92       
N           34.0        -10.82      84.64       
N           35.08       -11.62      84.7        
N           36.06       -11.22      85.48       
C           34.9        -12.98      84.33       
H           35.78       -7.19       87.56       
H           33.8        -6.7        86.6        
H           34.17615    -13.04146   83.51737    
H           35.87       -13.23      83.93       
H           34.54959    -13.54767   85.19201    
C           34.21       -7.62       86.34       
C           34.28       -9.76       85.39       
C           33.52       -8.55       85.51       
C           39.95       -8.44       88.03       
C           39.95       -9.71       87.47       
S           38.34       -7.75       87.9        
H           38.4        -11.13      86.74       
H           40.85       -10.34      87.44       
C           38.67       -10.14      87.13       
C           37.68       -9.16       87.21       
C           41.8        -5.13       90.85       
C           42.06       -6.26       90.12       
N           40.74       -4.53       90.2        
C           40.16       -5.32       89.2        
C           42.94       -7.39       90.02       
O           43.93       -7.76       90.62       
O           39.11       -4.95       88.63       
C           43.3        -8.87       88.08       
C           40.43       -3.1        90.09       
H           41.00367    -2.69126    89.25818    
H           40.66       -2.5        91.01       
H           39.41       -2.84       89.92       
H           42.98       -8.74       87.05       
H           43.41617    -9.90104    88.414      
H           44.24       -8.32       88.16       
N           42.4        -8.15       88.94       
C           40.97       -6.53       89.19       
C           41.05       -7.81       88.64       
C           43.09       -3.21       93.99       
C           43.85       -4.33       93.85       
S           41.76       -3.38       92.94       
H           44.03       -6.11       92.47       
H           44.58       -4.55       94.57       
C           43.52       -5.15       92.7        
C           42.52       -4.65       91.98       
C           42.75       -0.0        97.06       
C           43.64       -1.18       97.24       
C           42.08       0.06        95.84       
N           44.53       -3.21       96.65       
N           44.79       -2.87       97.97       
N           44.27       -1.68       98.33       
C           45.01       -3.96       98.9        
H           41.44       0.91        95.67       
H           41.72       -0.88       93.9        
H           45.73473    -4.64921    98.46658    
H           45.42       -3.49       99.87       
H           44.0695     -4.46642    99.11704    
C           42.27       -0.97       94.86       
C           43.73       -2.22       96.27       
C           43.01       -2.14       95.04       
C           41.55       3.0         99.53       
C           42.15       1.97        100.22      
S           41.65       2.49        97.84       
H           43.39       0.08        99.91       
H           42.19       1.97        101.28      
C           42.8        0.95        99.47       
C           42.44       0.96        98.11       
C           39.43       5.8         102.74      
C           39.66       5.52        101.43      
N           39.77       4.7         103.49      
C           40.36       3.69        102.58      
C           39.48       6.07        100.11      
O           38.93       7.07        99.67       
O           40.59       2.55        102.94      
C           39.82       5.22        97.88       
C           39.34       4.21        104.78      
H           38.50087    3.526       104.65307   
H           39.15       5.02        105.49      
H           40.24       3.69        105.25      
H           39.44       4.29        97.51       
H           40.55824    5.70764     97.24336    
H           38.98       5.87        97.84       
N           40.25       5.14        99.27       
C           40.32       4.28        101.3       
C           40.75       4.07        100.03      
C           36.75       8.41        103.68      
C           37.61       8.3         104.71      
S           37.4        7.69        102.32      
H           39.37       7.12        105.26      
H           37.54       8.8         105.63      
C           38.62       7.35        104.49      
C           38.75       6.96        103.19      
C           33.08       11.07       103.47      
C           33.81       10.94       104.66      
C           33.71       10.38       102.43      
N           35.47       10.16       106.01      
N           34.59       10.92       106.62      
N           33.7        11.51       105.89      
C           34.41       11.02       108.09      
H           33.25       10.54       101.5       
H           35.14       9.02        101.62      
H           35.22675    10.42731    108.50199   
H           34.51       12.0        108.45      
H           33.4409     10.58281    108.33045   
C           34.85       9.54        102.51      
C           35.03       10.08       104.74      
C           35.59       9.34        103.63      
C           30.14       13.55       102.38      
C           30.76       14.11       103.53      
S           31.1        12.15       101.94      
H           32.11       13.44       105.1       
H           30.47       15.04       103.88      
C           31.72       13.22       104.16      
C           32.07       12.14       103.39      
C           27.66       17.32       100.6       
C           27.89       15.92       100.58      
N           28.64       17.9        101.43      
C           29.51       16.86       101.93      
C           27.38       14.65       100.06      
O           26.43       14.29       99.32       
O           30.44       17.04       102.65      
C           27.92       12.24       100.57      
C           28.4        19.05       102.29      
H           28.18944    18.82492    103.33552   
H           27.57       19.66       101.95      
H           29.24       19.78       102.31      
H           28.24       11.65       101.43      
H           28.31936    11.78358    99.6643     
H           26.84       12.08       100.51      
N           28.29       13.64       100.71      
C           28.99       15.58       101.45      
C           29.25       14.24       101.52      
C           25.45       19.65       98.26       
C           24.93       18.38       98.27       
S           26.75       19.7        99.39       
H           25.31       16.36       99.21       
H           24.16       18.15       97.58       
C           25.55       17.48       99.15       
C           26.64       18.03       99.88       
C           24.48       22.98       95.52       
C           24.26       21.6        95.14       
C           24.91       23.07       96.86       
N           24.34       19.33       95.41       
N           23.9        19.68       94.22       
N           23.74       21.0        94.0        
C           24.09       18.75       93.15       
H           24.92       24.1        97.25       
H           25.49       22.34       98.72       
H           24.27445    17.74657    93.53367    
H           23.26       18.82       92.45       
H           25.0147     19.06524    92.66663    
C           25.13       22.02       97.79       
C           24.65       20.51       96.0        
C           25.19       20.7        97.31       
C           23.03       25.73       93.07       
C           23.91       26.37       93.92       
S           23.06       24.02       93.41       
H           24.99       25.75       95.81       
H           23.98       27.45       94.03       
C           24.43       25.45       94.96       
C           24.08       24.14       94.75       
C           20.62       29.32       90.73       
C           20.88       28.02       91.04       
N           21.41       30.09       91.68       
C           22.18       29.16       92.45       
C           20.41       26.7        90.58       
O           19.61       26.41       89.77       
O           22.89       29.6        93.27       
C           21.16       24.39       90.83       
C           20.98       31.32       92.34       
H           19.94956    31.18681    92.66946    
H           21.66       31.67       93.17       
H           21.02       32.16       91.63       
H           21.18       23.65       91.59       
H           22.01743    24.23664    90.17472    
H           20.2        24.12       90.41       
N           21.1        25.72       91.35       
C           21.83       27.78       92.07       
C           22.06       26.4        92.13       
C           18.53       30.16       87.43       
C           18.77       31.34       88.04       
S           19.24       28.92       88.31       
H           19.77       32.0        89.9        
H           18.49       32.31       87.6        
C           19.5        31.18       89.27       
C           19.79       29.87       89.65       
C           16.86       29.32       83.47       
C           16.53       30.51       84.16       
C           17.73       28.47       84.1        
N           16.58       32.0        85.79       
N           15.91       32.45       84.8        
N           15.63       31.51       83.87       
C           15.05       33.62       84.94       
H           18.14       27.57       83.61       
H           18.9        28.0        85.83       
H           15.68659    34.46653    85.19735    
H           14.52       33.75       84.04       
H           14.31962    33.43038    85.72657    
C           18.2        28.71       85.41       
C           17.03       30.76       85.5        
C           17.83       29.77       86.19       
C           16.05       29.08       79.61       
C           15.97       27.86       80.14       
S           16.05       30.27       80.9        
H           16.44       26.9        82.01       
H           16.01       26.95       79.5        
C           16.33       27.83       81.5        
C           16.38       29.07       82.09       
C           18.21       28.44       75.32       
C           17.55       29.25       76.2        
N           18.23       27.15       75.85       
C           17.55       27.1        77.08       
C           17.06       30.59       76.28       
O           17.08       31.52       75.59       
O           17.39       26.07       77.72       
C           15.34       31.57       77.88       
C           18.11       25.92       75.13       
H           17.13792    25.81768    74.64762    
H           18.9        25.76       74.45       
H           18.1        25.08       75.76       
H           15.32       31.66       78.97       
H           14.38637    31.23342    77.4733     
H           15.73       32.48       77.41       
N           16.35       30.58       77.59       
C           17.16       28.54       77.42       
C           16.58       29.42       78.29       
C           20.01       30.09       72.3        
C           19.67       28.82       71.92       
S           19.6        30.35       73.97       
H           18.43       27.18       72.83       
H           19.84       28.47       70.93       
C           18.88       28.15       72.91       
C           18.86       28.83       74.08       
C           21.81       33.22       69.75       
C           21.35       32.0        69.22       
C           21.62       33.35       71.12       
N           20.55       29.94       69.23       
N           20.97       30.28       68.03       
N           21.51       31.52       67.95       
C           20.96       29.34       66.84       
H           21.84       34.34       71.62       
H           20.91       32.47       73.04       
H           20.84313    28.3028     67.15408    
H           20.25       29.64       66.11       
H           21.95287    29.4309     66.3995     
C           21.03       32.35       71.94       
C           20.74       30.98       70.04       
C           20.58       31.14       71.47       
C           23.59       36.48       68.49       
C           23.2        35.76       67.44       
S           23.04       35.6        69.89       
H           22.27       33.93       66.93       
H           23.32       36.03       66.41       
C           22.57       34.55       67.73       
C           22.34       34.33       68.99       
C           25.77       40.3        66.51       
C           25.34       39.66       67.66       
N           25.55       39.44       65.46       
C           25.17       38.16       65.91       
C           25.13       39.84       69.06       
O           25.33       40.75       69.82       
O           24.93       37.2        65.16       
C           24.5        38.34       70.9        
C           25.63       39.76       64.03       
H           24.63893    39.82417    63.58081    
H           26.09       38.91       63.47       
H           26.26       40.63       63.74       
H           24.72       37.3        71.21       
H           23.54103    38.6191     71.33655    
H           25.29       38.89       71.33       
N           24.5        38.58       69.48       
C           24.81       38.33       67.33       
C           24.3        37.76       68.43       
C           27.21       43.91       66.03       
C           26.51       43.86       67.2        
S           27.11       42.36       65.18       
H           25.28       42.44       68.23       
H           26.41       44.62       68.0        
C           25.85       42.62       67.32       
C           26.05       41.68       66.4        
C           29.94       46.89       64.11       
C           29.32       47.16       65.35       
C           29.57       45.68       63.59       
N           27.89       46.9        67.15       
N           28.62       48.06       67.09       
N           29.53       48.22       66.18       
C           27.99       49.2        67.73       
H           30.1        45.21       62.75       
H           28.62       43.82       63.66       
H           27.01467    48.96845    68.15802    
H           28.61       49.54       68.57       
H           27.90948    49.97593    66.96871    
C           28.7        44.79       64.19       
C           28.42       46.24       66.03       
C           28.1        44.99       65.48       
C           33.35       48.49       63.02       
C           32.59       48.27       61.9        
S           32.35       48.26       64.45       
H           30.78       47.08       61.49       
H           32.85       48.56       60.91       
C           31.39       47.57       62.23       
C           31.06       47.53       63.54       
C           36.1        52.09       61.46       
C           35.88       51.11       62.44       
N           35.32       51.7        60.34       
C           34.48       50.61       60.66       
C           36.21       50.79       63.78       
O           36.85       51.27       64.66       
O           33.56       50.28       59.93       
C           35.0        49.52       65.57       
C           35.89       51.57       58.98       
H           36.45969    50.65258    58.83203    
H           36.63       52.37       58.84       
H           35.1        51.59       58.26       
H           34.61       48.58       65.88       
H           34.45658    50.30726    66.09252    
H           35.94       49.46       66.14       
N           35.21       49.77       64.1        
C           34.8        50.26       62.05       
C           34.47       49.42       63.05       
C           38.71       55.04       62.11       
C           37.9        55.31       61.05       
S           38.22       53.49       62.74       
H           36.27       54.45       59.92       
H           37.98       56.23       60.55       
C           37.0        54.28       60.68       
C           36.98       53.21       61.56       
C           41.0        57.39       65.05       
C           40.36       58.02       63.95       
C           40.99       56.02       65.0        
N           39.24       58.11       62.03       
N           39.67       59.33       62.45       
N           40.36       59.36       63.58       
C           39.62       60.53       61.6        
H           41.47       55.45       65.74       
H           40.42       54.24       63.91       
H           40.33363    60.42021    60.78344    
H           39.92       61.41       62.22       
H           38.59015    60.7231     61.29963    
C           40.39       55.35       63.93       
C           39.64       57.24       62.94       
C           39.58       55.86       62.94       
H           15.57       29.2        87.15       
H           41.46       58.01       65.9        
