472

C           13.27       46.53       45.23       
C           14.09       47.47       45.78       
S           12.78       47.2        43.72       
H           15.02       49.29       45.38       
H           14.42       47.39       46.82       
C           14.37       48.57       44.97       
C           13.8        48.56       43.73       
C           11.45       44.44       49.1        
C           11.73       44.41       47.77       
N           11.94       45.7        49.52       
C           12.47       46.47       48.42       
C           11.49       43.62       46.53       
O           10.97       42.55       46.2        
O           12.88       47.6        48.5        
C           11.94       43.97       44.13       
C           11.89       46.34       50.77       
H           10.98957    46.94997    50.84262    
H           12.8        46.88       51.01       
H           11.95       45.54       51.5        
H           12.74       44.28       43.5        
H           11.00953    44.36066    43.71804    
H           12.11       42.86       43.98       
N           12.24       44.32       45.53       
C           12.42       45.56       47.32       
C           12.59       45.52       45.98       
C           9.8         41.43       50.92       
C           9.34        42.6        51.42       
S           11.0        41.84       49.71       
H           9.42        44.76       51.14       
H           8.63        42.59       52.19       
C           9.87        43.78       50.9        
C           10.65       43.53       49.83       
C           8.95        37.31       51.92       
C           7.96        38.4        52.03       
C           10.16       37.77       51.66       
N           7.08        40.47       51.9        
N           6.21        39.56       52.24       
N           6.66        38.34       52.35       
C           4.77        39.63       52.08       
H           11.05       37.22       51.72       
H           11.48       39.22       51.02       
H           4.40256     40.63705    52.27733    
H           4.59        39.36       51.06       
H           4.34366     38.92434    52.79301    
C           10.45       39.05       51.25       
C           8.26        39.74       51.76       
C           9.51        40.09       51.27       
C           9.35        33.76       53.69       
C           8.02        34.1        53.52       
S           10.18       34.92       52.77       
H           6.7         35.84       52.81       
H           7.19        33.54       53.98       
C           7.7         35.37       52.93       
C           8.81        35.99       52.46       
C           8.98        29.59       56.13       
C           9.83        30.55       55.57       
N           7.71        30.02       55.96       
C           7.64        31.33       55.44       
C           11.23       30.94       55.36       
O           12.31       30.39       55.5        
O           6.57        31.96       55.42       
C           12.38       32.78       54.35       
C           6.61        29.17       55.54       
H           6.44401     29.23495    54.46467    
H           5.74        29.41       56.14       
H           6.82        28.13       55.83       
H           12.28       33.83       54.55       
H           12.87108    32.68178    53.38186    
H           13.06       32.58       55.14       
N           11.15       32.1        54.55       
C           9.05        31.67       55.09       
C           9.84        32.61       54.44       
C           10.71       26.32       57.25       
C           9.53        26.46       57.87       
S           11.03       27.72       56.28       
H           7.98        28.1        58.08       
H           9.27        25.81       58.68       
C           8.83        27.64       57.58       
C           9.49        28.38       56.67       
C           14.08       23.52       57.55       
C           12.75       23.21       58.12       
C           14.05       24.61       56.71       
N           10.68       23.58       58.88       
N           11.11       22.38       59.13       
N           12.28       22.12       58.69       
C           10.29       21.36       59.84       
H           14.95       24.9        56.15       
H           13.08       26.38       56.15       
H           9.42014     21.86684    60.2578     
H           9.97        20.54       59.23       
H           10.82552    20.83171    60.62881    
C           12.94       25.46       56.65       
C           11.67       24.14       58.09       
C           11.79       25.3        57.36       
C           16.89       20.81       58.54       
C           17.33       21.62       57.52       
S           15.31       21.31       58.9        
H           16.58       23.18       56.13       
H           18.34       21.55       57.06       
C           16.38       22.55       57.03       
C           15.17       22.51       57.64       
C           20.63       17.85       59.71       
C           19.33       18.28       59.9        
N           21.12       18.74       58.7        
C           20.09       19.67       58.2        
C           18.09       17.95       60.6        
O           17.82       17.03       61.33       
O           20.42       20.63       57.53       
C           15.88       18.93       60.99       
C           22.4        18.96       58.06       
H           22.49156    18.2134     57.27114    
H           22.59       19.96       57.82       
H           23.22       18.87       58.77       
H           14.99       19.06       60.37       
H           15.90794    19.64258    61.81435    
H           15.75       17.95       61.36       
N           17.12       18.91       60.25       
C           18.94       19.31       58.97       
C           17.63       19.78       59.24       
C           23.44       16.05       61.95       
C           22.2        16.03       62.56       
S           23.18       16.86       60.41       
H           20.18       16.52       62.12       
H           22.01       15.55       63.49       
C           21.16       16.55       61.76       
C           21.47       17.04       60.51       
C           27.2        14.42       63.41       
C           27.13       15.5        62.54       
C           25.92       14.04       63.81       
N           26.28       16.97       61.14       
N           27.56       16.99       61.14       
N           28.18       16.07       61.85       
C           28.29       17.75       60.04       
H           25.84       13.26       64.54       
H           23.73       14.32       63.96       
H           27.54116    18.29589    59.46612    
H           29.14       18.32       60.49       
H           28.78658    17.01932    59.40155    
C           24.69       14.65       63.45       
C           25.93       16.08       62.05       
C           24.67       15.6        62.48       
C           29.65       11.83       64.71       
C           30.32       12.52       63.74       
S           28.07       12.53       65.04       
H           29.99       14.34       62.47       
H           31.33       12.26       63.35       
C           29.6        13.64       63.25       
C           28.39       13.69       63.77       
C           29.66       8.45        68.16       
C           30.04       8.9         66.94       
N           28.64       9.35        68.54       
C           28.48       10.38       67.6        
C           30.94       8.55        65.87       
O           31.65       7.63        65.55       
O           27.79       11.36       67.9        
C           31.24       9.44        63.56       
C           27.53       9.12        69.39       
H           26.61761    8.8533      68.8566     
H           27.4        9.99        69.99       
H           27.66       8.2         69.97       
H           31.56       10.29       63.08       
H           30.45407    8.93476     62.99862    
H           32.16       8.79        63.71       
N           30.8        9.63        64.92       
C           29.44       10.08       66.51       
C           29.91       10.56       65.32       
C           31.46       6.27        70.93       
C           31.79       5.83        69.74       
S           30.36       7.55        70.72       
H           31.36       6.5         67.66       
H           32.48       5.02        69.68       
C           31.25       6.54        68.65       
C           30.33       7.45        68.96       
C           32.28       4.83        74.98       
C           32.47       3.97        73.84       
C           31.92       6.09        74.65       
N           32.41       3.41        71.66       
N           32.77       2.4         72.47       
N           32.72       2.68        73.77       
C           33.37       1.17        71.94       
H           31.74       6.71        75.51       
H           31.44       7.54        73.36       
H           33.37       1.24816     70.85281    
H           34.34       1.15        72.35       
H           32.85433    0.26042     72.24797    
C           31.69       6.56        73.37       
C           32.25       4.45        72.51       
C           31.77       5.74        72.25       
C           32.29       4.03        78.86       
C           32.61       2.88        78.2        
S           32.02       5.28        77.72       
H           32.71       2.26        76.12       
H           32.84       1.9         78.62       
C           32.63       3.09        76.8        
C           32.38       4.34        76.35       
C           31.17       2.62        83.37       
C           31.57       3.63        82.55       
N           31.15       1.39        82.62       
C           31.45       1.69        81.28       
C           31.82       5.02        82.38       
O           31.82       6.0         83.13       
O           31.44       0.8         80.42       
C           32.92       6.53        80.7        
C           30.76       0.03        83.04       
H           31.57152    -0.6545     82.79302    
H           29.88       -0.29       82.55       
H           30.58       -0.06       84.05       
H           32.28       7.01        80.0        
H           33.91586    6.38773     80.28032    
H           32.94       7.22        81.48       
N           32.29       5.21        81.06       
C           31.83       3.11        81.2        
C           32.09       4.09        80.29       
C           29.88       3.0         87.03       
C           30.78       3.95        86.79       
S           29.82       1.82        85.75       
H           31.89       4.74        85.02       
H           30.96       4.71        87.46       
C           31.22       3.97        85.47       
C           30.97       2.78        84.8        
C           26.89       2.66        90.32       
C           27.6        3.86        90.05       
C           27.15       1.67        89.41       
N           29.03       5.21        88.94       
N           28.36       5.79        89.91       
N           27.49       5.04        90.65       
C           28.54       7.21        90.06       
H           26.68       0.71        89.46       
H           28.33       0.93        87.76       
H           29.49689    7.42652     89.58505    
H           27.64       7.74        89.6        
H           28.58255    7.44402     91.12373    
C           28.09       1.82        88.31       
C           28.63       3.97        89.05       
C           28.89       2.91        88.13       
C           23.72       2.93        92.96       
C           24.18       1.66        92.83       
S           24.76       3.94        91.94       
H           25.71       0.48        91.66       
H           23.63       0.84        93.31       
C           25.2        1.45        91.78       
C           25.81       2.63        91.33       
C           20.02       2.37        95.76       
C           20.73       3.28        95.01       
N           20.94       1.46        96.21       
C           22.14       1.55        95.51       
C           20.71       4.58        94.36       
O           19.92       5.51        94.45       
O           22.93       0.63        95.59       
C           22.24       5.81        92.74       
C           20.94       0.8         97.46       
H           21.69233    1.25976     98.10087    
H           21.17       -0.22       97.32       
H           19.98       0.88        98.02       
H           22.78       5.56        91.83       
H           22.80675    6.5802      93.26315    
H           21.2        6.1         92.5        
N           21.97       4.66        93.6        
C           22.0        2.72        94.72       
C           22.68       3.43        93.76       
C           16.39       3.32        96.97       
C           16.64       2.02        97.17       
S           17.81       4.02        96.2        
H           18.24       0.54        96.57       
H           15.76       1.33        97.48       
C           17.91       1.57        96.69       
C           18.66       2.57        96.19       
C           12.69       5.7         97.42       
C           12.63       4.29        97.34       
C           13.97       6.25        97.35       
N           13.48       2.28        96.96       
N           12.21       2.26        97.12       
N           11.58       3.45        97.24       
C           11.53       1.01        97.12       
H           14.1        7.33        97.42       
H           16.02       6.01        97.15       
H           11.49432    0.61033     96.10655    
H           12.04       0.34        97.78       
H           10.53749    1.19699     97.52995    
C           15.11       5.44        97.19       
C           13.86       3.56        97.18       
C           15.17       4.1         97.13       
C           9.28        7.59        98.44       
C           10.07       8.38        97.62       
S           10.28       6.21        98.77       
H           11.96       8.28        96.47       
H           9.8         9.4         97.27       
C           11.24       7.7         97.09       
C           11.51       6.55        97.67       
C           5.99        10.41       100.37      
C           6.5         9.14        100.15      
N           6.87        11.31       99.72       
C           7.77        10.61       98.89       
C           6.23        7.79        100.5       
O           5.28        7.29        101.01      
O           8.52        11.17       98.1        
C           7.21        5.66        99.74       
C           7.08        12.8        99.91       
H           7.52376     13.00171    100.88493   
H           7.9         13.16       99.25       
H           6.25        13.42       99.59       
H           8.15        5.19        99.83       
H           6.77611     5.29724     98.8082     
H           6.59        5.39        100.59      
N           7.29        7.09        99.85       
C           7.68        9.26        99.35       
C           8.19        7.98        99.28       
C           2.95        12.01       102.51      
C           3.15        10.69       102.87      
S           4.0         12.32       101.13      
H           4.67        9.09        102.43      
H           2.59        10.12       103.68      
C           4.26        10.04       102.17      
C           4.91        10.84       101.24      
C           -0.57       14.6        103.12      
C           0.73        15.17       102.87      
C           -0.55       13.2        103.15      
N           2.94        15.1        102.37      
N           2.44        16.29       102.4       
N           1.14        16.43       102.66      
C           3.19        17.32       101.74      
H           -1.5        12.65       103.33      
H           0.55        11.28       103.13      
H           4.19512     17.41074    102.15182   
H           3.28        17.03       100.64      
H           2.60023     18.23014    101.84922   
C           0.64        12.34       103.05      
C           1.94        14.3        102.73      
C           1.89        12.92       102.93      
C           -4.28       15.93       103.45      
C           -3.35       17.06       103.64      
S           -3.32       14.55       103.02      
H           -1.18       17.4        103.56      
H           -3.65       18.09       103.81      
C           -2.01       16.71       103.49      
C           -1.8        15.35       103.3       
C           -8.47       17.79       105.08      
C           -7.78       16.76       104.5       
N           -7.55       18.86       105.05      
C           -6.24       18.43       104.64      
C           -7.98       15.45       103.97      
O           -8.92       14.67       103.81      
O           -5.37       19.26       104.73      
C           -6.49       13.6        103.26      
C           -7.9        20.24       105.28      
H           -7.56023    20.65929    106.22702   
H           -7.29       20.87       104.56      
H           -8.93       20.45       105.04      
H           -5.63       13.27       103.73      
H           -6.38117    13.44764    102.1862    
H           -7.4        13.05       103.66      
N           -6.69       14.97       103.64      
C           -6.34       17.05       104.24      
C           -5.68       15.97       103.77      
C           -12.06      18.0        106.69      
C           -12.03      16.95       105.93      
S           -10.62      18.89       106.53      
H           -10.55      15.99       104.46      
H           -12.81      16.25       105.88      
C           -10.8       16.81       105.14      
C           -9.89       17.81       105.45      
C           -14.87      19.63       109.76      
C           -15.26      18.61       108.83      
C           -13.68      20.18       109.41      
N           -15.05      17.12       107.16      
N           -16.2       16.99       107.85      
N           -16.38      17.88       108.84      
C           -17.13      15.96       107.5       
H           -13.29      20.98       109.97      
H           -11.91      20.3        108.34      
H           -16.67866   15.43228    106.65982   
H           -17.1       15.25       108.36      
H           -18.11125   16.36944    107.25998   
C           -12.83      19.71       108.39      
C           -14.36      18.04       107.86      
C           -13.07      18.53       107.6       
C           -16.62      21.94       112.43      
C           -17.46      20.9        112.17      
S           -15.16      21.73       111.45      
H           -17.54      19.21       110.75      
H           -18.47      20.77       112.56      
C           -16.99      20.07       111.17      
C           -15.71      20.28       110.72      
C           -15.56      26.12       114.37      
C           -16.47      25.09       114.22      
N           -14.36      25.62       113.73      
C           -14.44      24.26       113.36      
C           -17.85      24.74       114.52      
O           -18.76      25.28       115.11      
O           -13.59      23.52       112.86      
C           -19.36      22.76       114.1       
C           -13.62      26.36       112.72      
H           -14.14929   26.23125    111.77587   
H           -12.59      25.95       112.71      
H           -13.63      27.42       112.82      
H           -19.22      21.64       114.19      
H           -19.962     23.02111    113.22964   
H           -19.8       23.01       115.07      
N           -18.02      23.42       113.99      
C           -15.85      24.01       113.63      
C           -16.81      23.05       113.34      
C           -16.75      29.88       114.71      
C           -15.47      29.76       115.03      
S           -17.31      28.36       114.17      
H           -13.97      28.13       115.03      
H           -14.81      30.61       115.37      
C           -14.98      28.42       114.93      
C           -15.91      27.51       114.6       
C           -19.64      33.27       114.65      
C           -18.26      33.46       115.06      
C           -19.85      32.04       114.15      
N           -16.09      32.87       115.49      
N           -16.39      34.12       115.71      
N           -17.62      34.61       115.42      
C           -15.34      35.04       116.15      
H           -20.8       31.85       113.78      
H           -19.29      30.03       113.79      
H           -14.37757   34.52962    116.18646   
H           -15.31      35.8        115.43      
H           -15.54445   35.43528    117.14501   
C           -18.96      30.98       114.16      
C           -17.28      32.36       115.03      
C           -17.66      31.03       114.66      
C           -22.72      35.47       114.13      
C           -21.79      36.22       114.74      
S           -22.2       33.81       114.08      
H           -19.65      36.07       115.52      
H           -21.88      37.28       114.85      
C           -20.58      35.56       115.14      
C           -20.63      34.3        114.67      
C           -25.54      38.85       112.25      
C           -25.39      37.5        112.62      
N           -24.44      39.53       112.68      
C           -23.51      38.6        113.16      
C           -26.05      36.17       112.59      
O           -27.19      35.82       112.21      
O           -22.35      38.94       113.37      
C           -25.48      33.97       113.45      
C           -24.41      40.93       113.11      
H           -24.21956   40.97937    114.1821    
H           -25.43      41.36       113.07      
H           -23.74      41.52       112.48      
H           -24.96      33.54       114.23      
H           -25.48709   33.34589    112.55639   
H           -26.49      34.15       113.85      
N           -25.05      35.28       113.14      
C           -24.12      37.32       113.22      
C           -23.87      35.97       113.48      
C           -28.83      40.24       110.74      
C           -27.84      41.1        110.56      
S           -28.31      38.8        111.57      
H           -25.8       41.34       110.99      
H           -27.97      41.99       109.96      
C           -26.62      40.69       111.05      
C           -26.61      39.43       111.59      
C           -33.0       40.76       109.3       
C           -32.61      39.74       110.2       
C           -31.97      41.57       108.89      
N           -31.28      38.56       111.53      
N           -32.53      38.08       111.5       
N           -33.38      38.73       110.73      
C           -32.96      36.99       112.28      
H           -32.21      42.39       108.17      
H           -29.96      42.17       109.01      
H           -32.11409   36.3105     112.38401   
H           -33.85      36.47       111.92      
H           -33.24801   37.41833    113.24004   
C           -30.64      41.41       109.35      
C           -31.27      39.55       110.64      
C           -30.2       40.44       110.26      
H           14.24       49.05       42.9        
H           -34.08      40.98       109.13      
