472

C           89.84       93.17       75.49       
C           90.37       92.18       76.28       
S           90.4        94.72       75.96       
H           92.08       92.18       77.84       
H           90.18       91.14       76.29       
C           91.42       92.71       77.14       
C           91.59       94.06       76.97       
C           86.45       90.77       72.99       
C           87.06       91.99       73.3        
N           87.02       89.82       73.85       
C           88.12       90.38       74.48       
C           87.0        93.45       73.04       
O           86.45       94.09       72.16       
O           88.92       89.73       75.18       
C           88.54       95.34       73.52       
C           86.55       88.53       74.3        
H           86.22651    88.51594    75.3408     
H           87.37       87.76       74.19       
H           85.69       88.12       73.72       
H           89.66       95.24       73.39       
H           88.10554    96.05031    74.22342    
H           88.21       95.48       72.48       
N           88.04       94.05       73.85       
C           88.12       91.82       74.24       
C           88.79       93.04       74.5        
C           83.74       89.81       70.24       
C           83.75       91.23       70.33       
S           85.08       89.23       71.21       
H           84.62       92.72       71.69       
H           83.2        91.87       69.69       
C           84.55       91.68       71.42       
C           85.29       90.69       72.07       
C           81.69       87.4        67.02       
C           82.45       86.79       68.09       
C           81.64       88.75       67.18       
N           83.68       86.87       69.98       
N           83.64       85.65       69.41       
N           82.84       85.55       68.41       
C           84.67       84.7        69.68       
H           81.16       89.32       66.37       
H           82.25       90.61       68.15       
H           85.20805    85.03982    70.56495    
H           84.22       83.7        69.83       
H           85.39804    84.63933    68.87107    
C           82.3        89.52       68.22       
C           83.08       87.65       69.11       
C           83.02       89.0        69.24       
C           78.82       86.09       64.6        
C           79.36       84.94       65.25       
S           79.71       87.52       65.11       
H           81.08       84.62       66.71       
H           78.88       83.95       65.21       
C           80.49       85.32       66.14       
C           80.86       86.66       66.1        
C           74.64       84.32       62.85       
C           75.51       85.4        62.93       
N           75.19       83.26       63.57       
C           76.4        83.63       64.23       
C           75.66       86.72       62.45       
O           74.96       87.52       61.89       
O           77.04       82.92       64.99       
C           77.65       88.34       62.54       
C           75.03       81.81       63.16       
H           75.93841    81.50958    62.63784    
H           74.11       81.64       62.63       
H           74.95       81.22       64.1        
H           78.75       88.23       62.32       
H           77.27727    89.13563    63.1851     
H           77.27       88.49       61.56       
N           77.03       87.04       62.97       
C           76.63       85.03       63.74       
C           77.58       86.1        63.8        
C           72.28       83.72       59.72       
C           71.69       83.22       60.84       
S           73.88       84.33       60.22       
H           72.24       82.99       63.06       
H           70.75       82.66       60.81       
C           72.48       83.4        62.07       
C           73.58       84.15       61.89       
C           71.35       82.47       55.57       
C           72.11       83.66       55.87       
C           71.0        81.74       56.69       
N           73.14       85.12       57.24       
N           73.27       85.41       55.94       
N           72.67       84.62       55.09       
C           73.69       86.67       55.46       
H           70.36       80.86       56.5        
H           70.81       81.55       58.81       
H           74.38575    87.01078    56.22675    
H           74.16       86.52       54.48       
H           72.80938    87.30916    55.39608    
C           71.22       82.17       58.04       
C           72.42       84.01       57.26       
C           72.0        83.26       58.36       
C           69.69       80.98       52.29       
C           70.11       82.25       52.09       
S           70.04       80.57       53.93       
H           71.13       83.92       53.18       
H           70.0        82.71       51.15       
C           70.77       82.84       53.13       
C           70.85       82.08       54.25       
C           67.46       79.74       48.27       
C           67.81       79.44       49.54       
N           67.9        81.03       47.96       
C           68.66       81.58       49.1        
C           67.69       78.35       50.52       
O           67.22       77.27       50.59       
O           69.14       82.66       49.08       
C           68.36       78.04       52.91       
C           67.99       81.72       46.7        
H           68.50154    81.07692    45.98384    
H           66.94       81.91       46.39       
H           68.47       82.72       46.86       
H           68.32       78.64       53.86       
H           69.12137    77.27158    53.04395    
H           67.42       77.54       52.85       
N           68.41       78.89       51.66       
C           68.57       80.53       50.14       
C           68.94       80.13       51.39       
C           64.93       77.7        46.02       
C           65.73       76.82       46.81       
S           65.43       79.37       46.38       
H           67.46       77.05       48.3        
H           65.45       75.76       47.01       
C           66.75       77.49       47.6        
C           66.75       78.82       47.38       
C           60.85       77.12       44.49       
C           61.51       76.13       45.18       
C           61.55       78.32       44.48       
N           63.12       75.11       46.22       
N           62.04       74.37       46.07       
N           61.08       74.85       45.42       
C           61.78       73.2        46.91       
H           61.08       79.22       44.13       
H           63.34       79.45       44.76       
H           62.67891    73.02022    47.49969    
H           60.87       73.42       47.5        
H           61.62254    72.4127     46.1728     
C           62.9        78.47       44.93       
C           62.84       76.27       45.6        
C           63.62       77.44       45.46       
C           56.88       77.49       44.21       
C           57.1        76.16       44.34       
S           58.32       78.45       44.29       
H           58.83       74.87       44.12       
H           56.31       75.47       44.43       
C           58.51       75.92       44.24       
C           59.37       77.0        44.25       
C           52.11       77.98       44.32       
C           53.3        78.46       44.12       
N           52.28       76.79       45.07       
C           53.66       76.49       45.11       
C           53.9        79.63       43.54       
O           53.51       80.63       43.06       
O           54.14       75.48       45.72       
C           56.19       80.25       42.8        
C           51.36       76.14       45.93       
H           51.55378    76.40991    46.96812    
H           51.47       75.07       45.82       
H           50.38       76.42       45.72       
H           57.05       79.64       42.44       
H           56.47146    81.15362    43.34069    
H           55.54       80.53       41.89       
N           55.34       79.42       43.63       
C           54.34       77.62       44.59       
C           55.54       78.14       44.22       
C           49.0        80.14       43.37       
C           48.72       78.82       43.31       
S           50.64       80.3        43.97       
H           49.6        76.89       43.77       
H           47.73       78.62       42.9        
C           49.67       77.93       43.83       
C           50.84       78.58       44.02       
C           46.89       83.76       42.0        
C           46.43       82.44       41.53       
C           48.01       83.71       42.81       
N           46.46       80.21       41.3        
N           45.52       80.78       40.63       
N           45.49       82.1        40.62       
C           44.75       80.11       39.65       
H           48.61       84.57       43.08       
H           49.47       82.61       43.9        
H           44.71425    79.05881    39.93604    
H           43.75       80.63       39.6        
H           45.21622    80.18173    38.66735    
C           48.6        82.54       43.21       
C           47.02       81.23       42.04       
C           48.19       81.26       42.89       
C           45.98       87.59       41.42       
C           45.15       86.86       40.58       
S           46.98       86.46       42.29       
H           44.85       84.72       39.96       
H           44.4        87.28       39.96       
C           45.31       85.44       40.66       
C           46.36       85.07       41.52       
C           47.8        91.54       43.2        
C           47.0        90.97       42.26       
N           47.93       90.64       44.22       
C           47.42       89.34       43.84       
C           46.26       91.22       40.98       
O           46.39       92.16       40.2        
O           47.47       88.34       44.52       
C           45.01       89.84       39.43       
C           47.93       90.95       45.64       
H           46.9467     90.82447    46.09329    
H           48.18       91.94       45.85       
H           48.66       90.34       46.17       
H           44.18       89.22       39.61       
H           45.51048    89.48155    38.53048    
H           44.58       90.86       39.33       
N           45.86       89.93       40.56       
C           46.76       89.6        42.54       
C           46.1        88.96       41.54       
C           49.89       94.78       43.62       
C           48.87       95.03       42.76       
S           49.82       93.1        44.06       
H           47.19       94.04       41.76       
H           48.66       95.96       42.37       
C           47.98       93.95       42.49       
C           48.28       92.88       43.25       
C           52.99       97.11       45.48       
C           51.88       97.76       44.84       
C           53.07       95.81       45.21       
N           49.92       97.89       43.69       
N           50.44       99.04       44.08       
N           51.63       99.04       44.68       
C           49.67       100.29      44.26       
H           53.96       95.26       45.52       
H           52.22       93.93       44.61       
H           49.07123    100.47799   43.3688     
H           49.05       100.18      45.14       
H           50.36293    101.11562   44.42218    
C           52.06       95.07       44.52       
C           50.89       97.05       44.15       
C           50.91       95.62       44.16       
C           55.11       99.4        47.95       
C           55.68       98.16       47.89       
S           53.75       99.41       46.84       
H           55.37       96.23       46.89       
H           56.54       97.92       48.53       
C           55.07       97.27       46.96       
C           54.02       97.81       46.3        
C           56.82       101.4       51.94       
C           56.16       101.55      50.78       
N           57.14       100.1       52.1        
C           56.58       99.27       51.03       
C           55.49       102.53      49.93       
O           55.34       103.67      50.09       
O           56.82       98.06       50.92       
C           54.13       102.51      47.8        
C           57.85       99.5        53.22       
H           57.1703     98.99548    53.90671    
H           58.56       100.2       53.61       
H           58.49       98.69       52.89       
H           53.21       101.98      47.51       
H           54.73712    102.81356   46.94715    
H           53.73       103.38      48.36       
N           54.91       101.77      48.82       
C           56.02       100.26      50.09       
C           55.33       100.44      48.91       
C           58.52       104.58      53.34       
C           58.1        103.77      54.4        
S           57.93       103.82      51.85       
H           56.94       101.91      54.78       
H           58.31       104.15      55.4        
C           57.45       102.54      54.05       
C           57.32       102.45      52.69       
C           60.43       108.45      53.24       
C           60.52       107.57      52.17       
C           59.71       108.03      54.25       
N           60.41       105.71      51.0        
N           61.03       106.67      50.37       
N           61.16       107.8       50.97       
C           61.64       106.44      49.0        
H           59.59       108.55      55.23       
H           58.49       106.5       55.12       
H           61.34078    105.43549   48.70078    
H           61.21       107.17      48.28       
H           62.71715    106.60627   48.98554    
C           59.07       106.75      54.28       
C           59.91       106.33      52.18       
C           59.18       105.84      53.28       
C           62.52       111.93      53.0        
C           61.9        111.86      54.25       
S           62.4        110.39      52.24       
H           60.29       110.65      55.11       
H           61.78       112.67      54.98       
C           61.03       110.69      54.31       
C           61.13       109.8       53.29       
C           64.34       114.86      49.74       
C           64.47       114.31      51.01       
N           63.18       114.26      49.23       
C           62.5        113.36      50.06       
C           65.27       114.32      52.23       
O           66.21       115.0       52.62       
O           61.41       112.89      49.8        
C           65.2        112.69      54.05       
C           62.46       114.77      48.04       
H           62.50924    114.10882   47.17483    
H           61.37       114.82      48.27       
H           62.73       115.76      47.73       
H           65.03       111.56      54.0        
H           65.0856     113.16904   55.02238    
H           66.2        112.75      53.75       
N           64.51       113.43      53.02       
C           63.32       113.44      51.26       
C           63.37       112.94      52.49       
C           66.5        117.57      47.7        
C           66.61       117.74      49.1        
S           65.57       116.05      47.53       
H           65.79       117.07      51.0        
H           67.33       118.48      49.45       
C           65.9        116.85      49.93       
C           65.08       116.0       49.25       
C           67.18       120.21      44.25       
C           67.52       120.57      45.56       
C           66.91       118.83      44.11       
N           68.11       120.31      47.71       
N           68.23       121.58      47.24       
N           67.93       121.79      45.95       
C           68.32       122.63      48.16       
H           66.59       118.42      43.16       
H           66.3        116.96      44.97       
H           68.52869    122.25436   49.16172    
H           69.13       123.22      47.83       
H           67.39943    123.21255   48.19596    
C           66.64       117.97      45.21       
C           67.51       119.65      46.67       
C           66.96       118.29      46.52       
C           68.06       122.26      40.89       
C           67.3        123.01      41.73       
S           68.11       120.63      41.56       
H           66.62       122.93      43.78       
H           66.97       123.95      41.47       
C           67.02       122.39      42.94       
C           67.25       121.05      43.04       
C           68.82       125.17      37.14       
C           69.22       124.12      37.91       
N           67.59       125.55      37.62       
C           67.27       124.8       38.79       
C           70.26       123.11      38.01       
O           71.45       123.03      37.64       
O           66.28       125.03      39.38       
C           70.56       121.08      39.42       
C           66.72       126.6       37.24       
H           66.20998    126.31267   36.32053    
H           65.99       126.86      38.03       
H           67.18       127.55      37.01       
H           69.86       120.21      39.6        
H           71.14696    121.23558   40.32519    
H           71.27       120.85      38.6        
N           69.78       122.31      39.09       
C           68.29       123.8       38.91       
C           68.61       122.7       39.65       
C           70.6        127.01      34.15       
C           71.15       125.81      34.35       
S           69.38       127.25      35.38       
H           71.03       124.09      35.65       
H           71.9        125.39      33.62       
C           70.66       125.05      35.41       
C           69.54       125.61      35.97       
C           71.92       130.33      31.68       
C           70.69       130.39      32.42       
C           72.48       129.1       31.65       
N           69.3        129.8       34.09       
N           69.02       131.02      33.58       
N           69.8        131.44      32.58       
C           67.93       131.86      33.99       
H           73.27       128.93      30.91       
H           72.47       127.06      32.28       
H           67.30786    131.2099    34.60515    
H           68.3        132.67      34.6        
H           67.33667    132.18492   33.13532    
C           71.98       128.01      32.41       
C           70.23       129.34      33.25       
C           70.93       128.09      33.31       
C           73.88       132.91      29.46       
C           72.68       133.51      29.74       
S           73.79       131.23      29.9        
H           70.87       132.99      30.95       
H           72.41       134.46      29.4        
C           71.84       132.66      30.6        
C           72.39       131.41      30.85       
C           76.79       136.46      27.72       
C           76.59       135.18      28.01       
N           75.52       137.06      27.87       
C           74.56       136.16      28.42       
C           77.28       133.92      28.08       
O           78.47       133.61      27.94       
O           73.38       136.47      28.4        
C           76.94       131.66      28.96       
C           74.96       138.19      27.28       
H           74.64311    137.95233   26.26452    
H           75.62       139.04      27.15       
H           74.12       138.65      27.89       
H           76.18       130.94      28.67       
H           77.35493    131.47073   29.95001    
H           77.57       131.57      28.1        
N           76.38       133.01      28.74       
C           75.27       134.92      28.48       
C           75.1        133.59      28.86       
C           79.87       138.97      27.14       
C           80.27       137.66      27.17       
S           78.11       138.87      27.38       
H           79.48       135.64      27.49       
H           81.36       137.41      27.17       
C           79.26       136.66      27.25       
C           78.03       137.12      27.36       
C           82.37       142.37      28.17       
C           81.12       142.51      27.44       
C           82.67       141.07      28.4        
N           79.25       141.81      26.4        
N           79.26       143.13      26.57       
N           80.41       143.61      27.07       
C           78.33       143.99      25.84       
H           83.54       140.7       28.91       
H           82.23       139.01      28.21       
H           77.45401    143.37125   25.64534    
H           78.04       144.87      26.43       
H           78.80825    144.35735   24.93202    
C           81.83       139.97      28.03       
C           80.29       141.39      27.13       
C           80.71       140.14      27.36       
C           84.92       144.9       29.9        
C           84.29       145.56      28.86       
S           84.34       143.25      30.01       
H           82.73       145.06      27.28       
H           84.48       146.56      28.65       
C           83.32       144.7       28.16       
C           83.26       143.43      28.65       
C           87.92       144.75      33.54       
C           87.09       145.46      32.79       
N           87.77       143.39      33.13       
C           87.23       143.4       31.77       
C           86.49       146.81      32.61       
O           86.59       147.87      33.15       
O           87.24       142.36      31.14       
C           84.43       147.54      31.57       
C           88.02       142.14      33.83       
H           87.22451    141.39513   33.8517     
H           88.12       142.37      34.87       
H           88.96       141.78      33.44       
H           83.53       146.91      31.4        
H           84.54736    148.37532   30.87966    
H           84.19       147.91      32.59       
N           85.61       146.63      31.54       
C           86.68       144.68      31.62       
C           85.78       145.41      30.9        
C           88.87       146.26      37.1        
C           89.77       145.33      36.75       
S           87.73       146.49      35.7        
H           90.1        143.89      35.04       
H           90.42       144.98      37.48       
C           89.54       144.72      35.46       
C           88.53       145.31      34.76       
C           87.88       147.83      41.06       
C           87.38       148.42      39.89       
C           88.72       146.78      40.84       
N           87.03       148.66      37.64       
N           86.42       149.57      38.38       
N           86.43       149.38      39.69       
C           85.77       150.69      37.76       
H           89.07       146.24      41.67       
H           89.56       145.33      39.52       
H           85.59191    150.39082   36.7271     
H           86.53       151.49      37.74       
H           84.82308    150.92854   38.2443     
C           89.1        146.29      39.55       
C           87.74       147.91      38.6        
C           88.65       146.86      38.42       
H           92.59       94.6        77.07       
H           88.27       148.5       41.89       
