472

C           74.16       51.51       65.51       
C           74.82       50.81       66.44       
S           73.34       50.34       64.57       
H           75.03       48.71       67.14       
H           75.45       51.29       67.16       
C           74.64       49.39       66.35       
C           73.91       48.89       65.36       
C           74.38       56.21       66.93       
C           74.15       55.27       65.96       
N           75.11       55.55       67.91       
C           75.25       54.14       67.6        
C           73.57       55.13       64.64       
O           73.14       55.93       63.83       
O           75.85       53.42       68.33       
C           73.13       53.26       63.1        
C           75.72       55.9        69.22       
H           75.16866    55.57063    70.10071    
H           75.7        57.01       69.22       
H           76.78       55.74       69.18       
H           72.42       52.36       63.08       
H           73.96312    53.00144    62.44643    
H           72.54       54.08       62.7        
N           73.5        53.7        64.4        
C           74.5        53.89       66.38       
C           74.01       52.95       65.46       
C           74.33       59.98       66.11       
C           74.19       59.89       67.49       
S           74.41       58.5        65.27       
H           74.11       58.17       68.97       
H           74.23       60.71       68.24       
C           74.09       58.5        67.87       
C           74.25       57.68       66.82       
C           75.27       63.81       64.15       
C           74.92       62.68       63.37       
C           75.34       63.61       65.48       
N           74.38       60.59       63.02       
N           74.54       61.3        61.95       
N           74.82       62.56       62.09       
C           74.34       60.66       60.67       
H           75.67       64.42       66.13       
H           75.13       62.43       67.17       
H           74.3748     59.58813    60.86489    
H           73.3        61.01       60.34       
H           75.00705    60.96573    59.86398    
C           74.93       62.39       66.11       
C           74.67       61.48       64.01       
C           74.56       61.28       65.42       
C           76.14       67.49       63.06       
C           75.3        66.98       62.13       
S           76.41       66.35       64.35       
H           74.25       65.02       61.86       
H           74.89       67.6        61.36       
C           74.9        65.64       62.44       
C           75.46       65.12       63.53       
C           79.17       71.04       63.16       
C           77.83       70.67       63.06       
N           79.89       69.84       63.3        
C           79.01       68.68       63.36       
C           76.46       71.12       62.92       
O           75.91       72.2        62.81       
O           79.34       67.54       63.47       
C           74.31       70.07       63.3        
C           81.27       69.61       62.74       
H           81.21166    68.98289    61.85038    
H           82.03       69.31       63.46       
H           81.74       70.56       62.39       
H           73.96       69.27       63.89       
H           73.63617    70.2062     62.45413    
H           74.13       70.98       63.82       
N           75.71       69.97       62.89       
C           77.75       69.27       63.12       
C           76.51       68.83       62.92       
C           81.04       74.46       63.4        
C           79.77       74.69       62.92       
S           81.24       72.76       63.67       
H           77.96       73.39       62.38       
H           79.35       75.63       62.66       
C           79.0        73.49       62.73       
C           79.68       72.34       63.04       
C           84.24       77.28       64.5        
C           82.82       77.65       64.45       
C           84.54       75.99       64.11       
N           80.66       77.48       64.05       
N           80.93       78.63       64.52       
N           82.24       78.83       64.77       
C           79.99       79.71       64.4        
H           85.56       75.63       64.15       
H           83.72       74.09       63.54       
H           79.00868    79.32342    64.67507    
H           80.34       80.42       65.16       
H           79.97611    80.09193    63.3792     
C           83.47       75.11       63.78       
C           81.82       76.77       64.07       
C           82.08       75.42       63.79       
C           87.37       78.82       66.06       
C           87.59       78.95       64.72       
S           85.84       78.09       66.42       
H           86.41       78.35       62.86       
H           88.61       79.21       64.27       
C           86.41       78.54       63.96       
C           85.38       78.18       64.75       
C           89.01       79.93       70.39       
C           89.27       79.51       69.13       
N           87.65       79.93       70.58       
C           87.06       79.5        69.38       
C           90.42       79.26       68.24       
O           91.58       79.39       68.39       
O           85.85       79.42       69.27       
C           90.58       78.72       65.84       
C           86.77       80.6        71.59       
H           86.6479     79.95357    72.45909    
H           87.0        81.63       71.8        
H           85.74       80.72       71.25       
H           90.45       79.36       64.94       
H           90.57302    77.64523    65.65855    
H           91.57       78.96       66.14       
N           89.73       79.08       66.94       
C           88.1        79.28       68.41       
C           88.38       79.02       67.1        
C           91.65       79.63       73.11       
C           90.9        80.74       73.38       
S           91.25       79.03       71.52       
H           89.25       81.73       72.41       
H           90.94       81.35       74.31       
C           89.92       80.92       72.42       
C           90.0        80.14       71.33       
C           94.71       77.77       75.73       
C           94.15       77.14       74.58       
C           94.3        79.13       75.86       
N           92.95       76.87       72.76       
N           93.69       75.84       72.87       
N           94.49       75.93       74.0        
C           93.66       74.66       71.99       
H           94.79       79.75       76.59       
H           93.13       80.77       75.2        
H           93.15053    74.91104    71.05967    
H           94.7        74.34       71.78       
H           93.23339    73.79989    72.50606    
C           93.37       79.73       74.91       
C           93.22       77.76       73.72       
C           92.77       79.08       73.9        
C           96.96       77.06       78.83       
C           97.22       76.02       77.91       
S           95.63       78.09       78.25       
H           96.41       75.43       75.81       
H           97.93       75.17       78.14       
C           96.41       76.1        76.74       
C           95.6        77.23       76.75       
C           97.75       78.91       83.21       
C           98.21       78.13       82.18       
N           96.59       79.51       82.77       
C           96.28       79.15       81.42       
C           99.29       77.28       81.76       
O           100.09      76.65       82.35       
O           95.33       79.56       80.74       
C           99.92       75.99       79.7        
C           95.49       80.25       83.31       
H           95.60872    81.29619    83.02805    
H           95.51       80.19       84.37       
H           94.51       79.77       83.0        
H           99.75       76.25       78.62       
H           99.89144    74.91176    79.85709    
H           100.94      76.29       80.09       
N           98.95       76.83       80.44       
C           97.29       78.15       81.07       
C           97.65       77.26       80.1        
C           99.44       80.53       86.48       
C           100.33      79.58       85.96       
S           97.99       80.59       85.51       
H           100.47      78.34       84.19       
H           101.3       79.34       86.36       
C           99.89       79.08       84.73       
C           98.59       79.39       84.38       
C           99.55       82.61       90.37       
C           100.5       81.64       90.0        
C           98.74       83.03       89.32       
N           101.41      80.02       88.72       
N           101.97      80.11       89.93       
N           101.43      81.01       90.79       
C           103.06      79.22       90.31       
H           97.94       83.78       89.52       
H           97.86       82.66       87.38       
H           103.06726   78.29775    89.72905    
H           104.06      79.74       90.19       
H           103.08129   79.02131    91.38153    
C           98.71       82.33       88.05       
C           100.47      80.99       88.7        
C           99.49       81.24       87.74       
C           98.66       84.66       93.68       
C           99.76       83.91       93.92       
S           98.27       84.47       92.0        
H           100.89      82.38       92.85       
H           100.33      84.0        94.81       
C           100.11      83.07       92.88       
C           99.43       83.24       91.69       
C           97.6        86.24       98.08       
C           97.34       86.37       96.7        
N           98.42       85.16       98.22       
C           98.87       84.59       97.02       
C           96.75       87.12       95.62       
O           96.05       88.1        95.53       
O           99.5        83.53       96.89       
C           96.47       86.79       93.23       
C           98.57       84.26       99.36       
H           97.76326    83.52796    99.39735    
H           98.43       84.81       100.29      
H           99.56       83.71       99.4        
H           96.42       85.89       92.67       
H           96.96014    87.58558    92.66883    
H           95.45       87.13       93.47       
N           97.2        86.51       94.4        
C           98.16       85.4        96.01       
C           98.03       85.45       94.67       
C           96.73       88.52       101.2       
C           96.37       89.09       100.06      
S           97.33       86.98       100.79      
H           96.33       88.77       97.91       
H           95.83       90.08       100.01      
C           96.57       88.33       98.9        
C           97.18       87.15       99.05       
C           96.91       90.38       105.13      
C           97.22       89.0        105.0       
C           96.77       91.05       103.98      
N           97.69       87.07       103.89      
N           97.62       86.99       105.24      
N           97.39       88.13       105.94      
C           97.49       85.69       105.83      
H           96.59       92.07       103.99      
H           96.57       91.1        101.86      
H           97.79955    84.9724     105.07018   
H           98.09       85.62       106.8       
H           96.43881    85.48262    106.03023   
C           96.77       90.43       102.71      
C           97.26       88.36       103.67      
C           96.93       89.05       102.51      
C           95.8        92.84       108.16      
C           96.07       91.56       108.66      
S           96.07       92.69       106.44      
H           97.05       89.64       107.88      
H           95.87       91.23       109.69      
C           96.69       90.67       107.7       
C           96.68       91.06       106.41      
C           92.77       94.38       111.56      
C           93.43       94.65       110.42      
N           93.54       93.45       112.23      
C           94.57       92.88       111.41      
C           93.46       95.54       109.27      
O           92.97       96.6        109.13      
O           95.4        92.17       111.92      
C           94.71       95.59       107.04      
C           93.67       93.35       113.69      
H           94.33185    94.11746    114.09133   
H           94.02       92.39       114.06      
H           92.75       93.53       114.19      
H           94.64       94.9        106.24      
H           95.644      96.15186    107.0473    
H           93.84       96.23       106.84      
N           94.43       94.98       108.31      
C           94.53       93.72       110.19      
C           95.02       93.85       108.88      
C           88.95       94.71       112.58      
C           89.14       95.31       111.39      
S           90.5        94.36       113.32      
H           90.92       95.69       110.08      
H           88.36       95.61       110.71      
C           90.51       95.32       111.02      
C           91.38       94.76       111.87      
C           85.32       93.75       114.81      
C           85.3        93.75       113.4       
C           86.56       94.08       115.32      
N           86.27       93.84       111.34      
N           85.0        93.46       111.36      
N           84.38       93.28       112.48      
C           84.25       93.44       110.15      
H           86.66       94.12       116.4       
H           88.6        94.63       115.16      
H           84.86102    93.78717    109.31679   
H           83.99       92.43       109.97      
H           83.34147    94.02257    110.30258   
C           87.72       94.37       114.6       
C           86.49       94.0        112.64      
C           87.7        94.41       113.24      
C           81.8        94.09       116.54      
C           82.72       93.82       117.53      
S           82.61       94.15       115.04      
H           84.85       93.31       117.62      
H           82.45       93.73       118.6       
C           84.02       93.64       117.0       
C           84.12       93.69       115.65      
C           77.48       93.72       118.55      
C           78.28       94.07       117.47      
N           78.35       92.97       119.39      
C           79.73       93.07       119.02      
C           78.15       94.67       116.14      
O           77.25       95.12       115.48      
O           80.65       92.46       119.59      
C           79.75       95.77       114.68      
C           77.89       91.85       120.19      
H           77.6253     91.00582    119.55329   
H           78.7        91.5        120.85      
H           77.03       92.12       120.79      
H           80.56       95.48       114.06      
H           79.89869    96.73296    115.16856   
H           78.93       95.76       113.96      
N           79.53       94.78       115.74      
C           79.65       93.74       117.7       
C           80.39       94.16       116.65      
C           73.65       93.96       118.84      
C           74.03       93.78       117.54      
S           75.03       93.92       119.87      
H           75.84       93.49       116.44      
H           73.38       93.68       116.71      
C           75.43       93.65       117.39      
C           76.1        93.58       118.52      
C           69.39       94.5        120.1       
C           70.53       94.71       120.98      
C           69.82       94.04       118.88      
N           72.65       94.83       121.68      
N           71.76       95.19       122.6       
N           70.47       95.15       122.23      
C           71.95       95.32       124.03      
H           69.1        93.7        118.14      
H           71.3        93.51       117.45      
H           72.85601    94.7973     124.33665   
H           72.07       96.45       124.16      
H           71.10445    94.8695     124.54981   
C           71.19       93.91       118.45      
C           71.91       94.45       120.58      
C           72.26       94.01       119.3       
C           66.32       97.02       120.34      
C           65.95       95.93       119.68      
S           67.93       96.73       121.03      
H           66.77       94.02       119.12      
H           65.03       95.76       119.12      
C           66.96       94.91       119.63      
C           68.12       95.14       120.34      
C           62.82       100.22      119.83      
C           64.09       99.95       120.09      
N           62.19       99.05       119.41      
C           63.09       97.93       119.67      
C           65.35       100.57      120.4       
O           65.72       101.7       120.5       
O           62.67       96.81       119.66      
C           67.66       99.81       119.82      
C           60.85       98.83       118.9       
H           60.17902    98.65304    119.74057   
H           60.55       99.58       118.13      
H           60.96       97.85       118.45      
H           67.99       99.07       119.18      
H           68.421      100.0612    120.55883   
H           67.48       100.57      119.1       
N           66.33       99.53       120.35      
C           64.33       98.56       120.08      
C           65.66       98.26       120.4       
C           61.08       103.74      120.08      
C           62.38       103.88      119.65      
S           60.69       102.06      120.17      
H           63.98       102.55      119.12      
H           62.79       104.84      119.36      
C           63.01       102.64      119.44      
C           62.3        101.56      119.68      
C           57.66       106.44      119.28      
C           57.67       105.58      120.37      
C           58.82       106.33      118.5       
N           58.39       103.91      121.71      
N           57.11       104.3       121.92      
N           56.71       105.34      121.26      
C           56.09       103.38      122.39      
H           58.91       106.93      117.61      
H           60.87       105.69      118.23      
H           56.5658     102.60863   122.99556   
H           55.35       104.0       122.96      
H           55.53176    102.96132   121.55264   
C           59.98       105.61      118.86      
C           58.79       104.67      120.68      
C           59.99       104.72      119.97      
C           54.73       108.52      117.73      
C           54.53       108.54      119.09      
S           56.09       107.52      117.33      
H           55.65       108.03      120.9       
H           53.76       109.12      119.59      
C           55.54       107.9       119.8       
C           56.51       107.38      118.99      
C           51.21       111.41      116.3       
C           52.2        110.54      115.99      
N           51.31       111.63      117.72      
C           52.47       110.96      118.23      
C           52.77       109.83      114.9       
O           52.44       109.73      113.73      
O           53.03       111.26      119.25      
C           54.17       107.83      114.73      
C           50.28       112.09      118.66      
H           49.90961    111.20398   119.17564   
H           49.45       112.59      118.14      
H           50.72       112.96      119.28      
H           54.21       106.91      115.33      
H           55.0688     107.92908   114.12136   
H           53.37       107.6       114.01      
N           53.81       108.98      115.5       
C           52.97       110.18      117.14      
C           53.93       109.3       116.83      
C           48.85       113.69      114.18      
C           49.83       113.21      113.39      
S           48.79       112.83      115.69      
H           51.51       111.79      113.6       
H           49.98       113.56      112.41      
C           50.69       112.35      114.04      
C           50.37       112.12      115.37      
C           45.85       116.63      112.79      
C           45.89       116.15      114.07      
C           46.79       116.06      112.0       
N           46.6        115.03      115.91      
N           45.59       115.79      116.16      
N           45.06       116.37      115.12      
C           44.94       115.89      117.47      
H           47.11       116.57      111.05      
H           48.62       114.91      111.74      
H           45.37287    115.12899   118.1193    
H           45.14       116.85      117.78      
H           43.86475    115.73017   117.39008   
C           47.83       115.19      112.49      
C           46.82       115.13      114.55      
C           47.87       114.64      113.77      
C           44.38       119.97      111.22      
C           43.77       119.82      112.47      
S           45.17       118.45      110.83      
H           43.57       118.28      114.03      
H           43.03       120.52      112.7       
C           44.02       118.59      113.12      
C           44.91       117.74      112.42      
C           41.61       123.38      109.09      
C           42.65       122.45      109.02      
N           41.2        123.41      110.43      
C           42.01       122.54      111.26      
C           43.6        121.94      108.1       
O           43.84       122.24      106.93      
O           41.94       122.55      112.5       
C           45.7        120.66      108.36      
C           40.1        124.11      111.05      
H           40.45458    124.961     111.63152   
H           39.55       123.45      111.67      
H           39.38       124.35      110.3       
H           45.92       119.61      108.45      
H           46.53321    121.19153   108.8197    
H           45.66       120.84      107.27      
N           44.41       121.06      108.93      
C           42.93       121.87      110.31      
C           43.95       120.91      110.2       
C           40.37       125.72      106.23      
C           40.73       124.54      105.6       
S           40.68       125.66      107.94      
H           41.57       122.6       106.34      
H           40.75       124.29      104.52      
C           41.17       123.58      106.54      
C           41.1        123.98      107.87      
C           38.92       129.58      104.7       
C           39.81       128.71      103.95      
C           38.57       129.09      105.9       
N           41.1        126.95      103.46      
N           41.27       127.9       102.52      
N           40.44       128.91      102.71      
C           42.58       128.18      102.03      
H           37.99       129.65      106.6       
H           38.73       127.5       107.42      
H           42.63544    128.14535   100.94196   
H           43.08       127.36      102.5       
H           43.00986    129.09801   102.43072   
C           38.97       127.76      106.37      
C           40.23       127.49      104.41      
C           39.79       126.94      105.65      
H           74.18       48.0        64.79       
H           39.0        130.65      104.6       
