472

C           29.93       78.36       1.48        
C           29.8        79.69       1.24        
S           31.34       77.8        0.6         
H           31.04       81.35       0.23        
H           29.06       80.27       1.69        
C           30.91       80.31       0.49        
C           31.66       79.35       -0.16       
C           26.43       77.25       4.68        
C           27.51       76.9        3.92        
N           25.98       78.43       4.08        
C           27.02       79.01       3.18        
C           28.37       75.75       3.77        
O           28.47       74.66       4.38        
O           26.91       80.11       2.77        
C           30.06       75.09       2.13        
C           24.77       79.17       4.26        
H           24.87238    80.09138    4.8333      
H           24.15       78.44       4.81        
H           24.13       79.26       3.43        
H           31.06       75.34       1.76        
H           29.51055    74.78398    1.23975     
H           30.2        74.33       2.93        
N           29.35       76.18       2.76        
C           27.93       77.88       3.06        
C           29.1        77.5        2.37        
C           24.41       74.81       7.23        
C           24.21       76.17       7.56        
S           25.34       74.76       5.76        
H           24.87       78.06       6.9         
H           23.63       76.43       8.37        
C           24.97       77.04       6.7         
C           25.7        76.49       5.71        
C           23.47       71.1        9.61        
C           23.1        72.41       9.92        
C           23.91       71.09       8.31        
N           23.01       74.57       10.01       
N           22.51       74.03       11.03       
N           22.53       72.71       11.09       
C           21.96       74.8        12.13       
H           24.0        70.12       7.79        
H           24.53       72.13       6.48        
H           21.79598    75.84829    11.88041    
H           20.99       74.31       12.44       
H           22.51447    74.78578    13.06833    
C           24.12       72.27       7.49        
C           23.36       73.61       9.21        
C           23.99       73.59       7.93        
C           22.27       67.54       10.98       
C           21.9        68.51       11.86       
S           23.18       68.38       9.73        
H           22.1        70.73       12.13       
H           21.28       68.23       12.71       
C           22.31       69.84       11.57       
C           23.03       69.93       10.39       
C           20.05       63.7        12.66       
C           20.97       64.15       11.74       
N           19.32       64.81       13.07       
C           19.74       66.0        12.45       
C           22.08       63.84       10.8        
O           22.51       62.81       10.42       
O           19.32       67.14       12.66       
C           24.01       65.12       9.99        
C           17.97       64.58       13.53       
H           17.25307    65.34613    13.23479    
H           17.98       64.5        14.62       
H           17.46       63.73       13.05       
H           24.56       65.98       10.33       
H           23.98818    65.00365    8.90645     
H           24.46       64.24       10.5        
N           22.66       65.14       10.48       
C           20.92       65.63       11.75       
C           21.93       66.16       10.97       
C           19.54       60.25       14.34       
C           20.61       60.13       13.49       
S           19.0        61.87       14.52       
H           21.67       61.43       12.12       
H           21.11       59.16       13.27       
C           20.78       61.36       12.77       
C           19.92       62.37       13.13       
C           17.56       57.18       16.96       
C           18.62       56.86       16.09       
C           17.32       58.53       16.96       
N           20.34       57.21       14.79       
N           20.22       55.91       15.05       
N           19.21       55.67       15.87       
C           20.59       54.85       14.17       
H           16.47       58.81       17.58       
H           17.75       60.53       16.4        
H           21.273      55.15356    13.37661    
H           21.0        54.06       14.83       
H           19.6958     54.3853     13.75459    
C           17.98       59.49       16.13       
C           19.28       57.85       15.28       
C           18.92       59.24       15.13       
C           15.2        55.61       19.65       
C           15.51       54.59       18.79       
S           16.14       57.02       19.26       
H           16.9        54.36       17.01       
H           15.08       53.58       18.79       
C           16.54       54.99       17.8        
C           16.84       56.31       17.85       
C           10.74       54.68       20.95       
C           11.8        55.52       21.1        
N           11.1        53.58       20.28       
C           12.49       53.67       19.9        
C           12.29       56.68       21.73       
O           11.74       57.49       22.46       
O           13.05       52.72       19.32       
C           14.64       57.47       22.13       
C           10.43       52.5        19.51       
H           10.50152    51.52013    19.98205    
H           9.37        52.63       19.36       
H           10.71       52.51       18.51       
H           15.49       57.87       21.57       
H           14.92728    56.83798    22.97031    
H           14.19       58.41       22.61       
N           13.69       56.76       21.22       
C           12.96       54.9        20.43       
C           14.0        55.7        20.44       
C           6.94        54.93       21.9        
C           7.46        56.19       21.81       
S           8.14        53.76       21.56       
H           9.45        57.03       21.25       
H           6.91        57.14       21.9        
C           8.79        56.15       21.4        
C           9.35        54.94       21.23       
C           3.02        53.23       23.12       
C           3.2         54.62       22.8        
C           4.16        52.52       23.02       
N           4.18        56.5        22.12       
N           2.89        56.67       22.32       
N           2.27        55.58       22.87       
C           2.17        57.7        21.6        
H           4.21        51.49       23.13       
H           6.28        52.45       22.64       
H           2.71189     58.64484    21.55832    
H           1.95        57.28       20.64       
H           1.18159     57.86824    22.02761    
C           5.4         53.08       22.68       
C           4.42        55.19       22.38       
C           5.62        54.4        22.32       
C           0.1         50.89       24.25       
C           -0.42       52.09       23.93       
S           1.83        50.95       24.01       
H           0.29        54.17       23.33       
H           -1.44       52.33       24.11       
C           0.55        53.07       23.6        
C           1.81        52.62       23.57       
C           -0.7        46.56       26.15       
C           -1.2        47.58       25.31       
N           0.46        47.1        26.74       
C           0.91        48.25       26.05       
C           -2.32       48.06       24.56       
O           -3.41       47.62       24.26       
O           2.0         48.78       26.13       
C           -2.48       49.67       22.74       
C           0.97        46.92       28.13       
H           0.80065     47.86556    28.64512    
H           2.01        46.65       28.06       
H           0.51        46.07       28.65       
H           -1.62       49.84       22.09       
H           -3.21504    50.47439    22.76774    
H           -2.9        48.79       22.41       
N           -1.91       49.33       24.02       
C           -0.23       48.64       25.27       
C           -0.66       49.7        24.53       
C           -1.63       42.88       27.33       
C           -2.61       43.55       26.64       
S           -0.27       43.97       27.19       
H           -3.17       45.21       25.34       
H           -3.6        43.11       26.62       
C           -2.41       44.81       26.02       
C           -1.21       45.3        26.41       
C           -1.61       39.06       29.26       
C           -2.82       39.7        29.0        
C           -0.47       39.65       28.74       
N           -4.05       41.43       28.39       
N           -4.75       40.5        28.95       
N           -4.11       39.38       29.24       
C           -6.17       40.53       29.33       
H           0.44        39.09       28.96       
H           0.49        41.36       27.73       
H           -6.42912    41.5665     29.11406    
H           -6.71       39.82       28.68       
H           -6.38407    40.36588    30.38609    
C           -0.44       40.89       28.03       
C           -2.81       40.98       28.38       
C           -1.62       41.57       27.95       
C           -1.96       35.93       31.8        
C           -0.79       35.78       31.18       
S           -2.76       37.35       31.27       
H           0.44        37.04       29.87       
H           -0.03       35.02       31.33       
C           -0.54       36.91       30.28       
C           -1.59       37.83       30.11       
C           -2.43       31.98       34.57       
C           -2.91       33.16       34.14       
N           -1.12       31.92       34.11       
C           -0.92       32.91       33.13       
C           -4.09       34.03       34.28       
O           -5.12       33.96       34.94       
O           0.2         33.0        32.65       
C           -4.72       36.25       33.45       
C           -0.22       30.84       34.41       
H           -0.02816    30.20281    33.5467     
H           -0.67       30.23       35.18       
H           0.73        31.1        34.86       
H           -4.96       36.6        32.44       
H           -4.36657    36.99368    34.16423    
H           -5.6        35.78       33.83       
N           -3.77       35.18       33.46       
C           -2.07       33.77       33.2        
C           -2.61       34.99       32.72       
C           -3.75       29.62       37.52       
C           -3.56       28.93       36.45       
S           -3.64       31.31       37.14       
H           -2.77       29.3        34.45       
H           -3.44       27.84       36.48       
C           -3.16       29.71       35.3        
C           -3.13       31.08       35.48       
C           -4.55       27.94       41.58       
C           -4.08       29.3        41.41       
C           -4.8        27.31       40.39       
N           -3.24       31.06       40.29       
N           -3.17       31.24       41.6        
N           -3.61       30.19       42.31       
C           -3.01       32.57       42.3        
H           -5.36       26.38       40.42       
H           -4.95       27.26       38.19       
H           -2.80304    33.28056    41.49976    
H           -3.93       32.78       42.81       
H           -2.12693    32.50642    42.93581    
C           -4.56       27.84       39.07       
C           -3.75       29.79       40.15       
C           -4.03       29.11       38.87       
C           -4.94       25.61       44.73       
C           -5.04       26.91       45.07       
S           -5.03       25.57       43.03       
H           -4.92       28.96       44.26       
H           -5.05       27.26       46.08       
C           -4.91       27.86       44.06       
C           -4.83       27.26       42.85       
C           -4.1        21.11       46.3        
C           -4.67       22.4        46.52       
N           -3.73       21.09       44.96       
C           -4.05       22.31       44.29       
C           -5.2        23.2        47.56       
O           -5.42       23.03       48.8        
O           -3.78       22.52       43.09       
C           -6.16       25.47       47.64       
C           -3.54       19.97       44.1        
H           -2.51259    19.99097    43.73656    
H           -4.35       19.98       43.41       
H           -3.64       18.95       44.53       
H           -6.81       26.16       46.99       
H           -5.46321    25.94637    48.32968    
H           -6.86       24.9        48.22       
N           -5.44       24.43       46.89       
C           -4.63       23.13       45.29       
C           -5.01       24.41       45.58       
C           -3.02       18.01       48.71       
C           -3.5        19.01       49.49       
S           -3.11       18.45       47.05       
H           -3.9        21.2        49.12       
H           -3.57       18.94       50.54       
C           -3.79       20.2        48.68       
C           -3.82       20.06       47.27       
C           -1.1        14.16       49.73       
C           -1.81       14.91       50.75       
C           -1.1        14.82       48.54       
N           -2.99       16.61       51.54       
N           -2.66       15.73       52.48       
N           -1.98       14.67       52.08       
C           -3.02       15.84       53.91       
H           -0.4        14.44       47.74       
H           -1.82       16.34       47.16       
H           -3.38499    16.85073    54.09249    
H           -3.81       15.08       54.03       
H           -2.17961    15.50521    54.51808    
C           -1.86       15.98       48.24       
C           -2.48       16.17       50.39       
C           -2.54       16.68       49.09       
C           1.07        11.07       50.96       
C           1.01        11.09       49.54       
S           0.07        12.34       51.51       
H           0.19        12.39       47.9        
H           1.44        10.28       48.95       
C           0.35        12.23       48.97       
C           -0.23       13.03       49.95       
C           3.26        7.0         52.22       
C           2.73        8.23        52.6        
N           2.79        6.73        50.95       
C           2.19        7.91        50.4        
C           2.65        9.16        53.73       
O           3.06        9.11        54.89       
O           1.85        7.88        49.21       
C           1.18        11.1        54.21       
C           2.84        5.52        50.13       
H           3.75082     5.58455     49.53474    
H           2.74        4.65        50.71       
H           2.0         5.45        49.4        
H           0.12        11.09       54.19       
H           1.5523      12.12382    54.2458     
H           1.34        10.65       55.18       
N           1.84        10.23       53.2        
C           2.07        8.85        51.46       
C           1.56        10.07       51.83       
C           5.17        4.13        54.32       
C           4.38        4.91        55.13       
S           4.93        4.72        52.67       
H           2.89        6.53        54.96       
H           4.37        4.77        56.28       
C           3.56        5.9         54.42       
C           3.75        5.95        53.1        
C           7.58        0.71        55.75       
C           7.65        1.24        54.45       
C           6.67        1.35        56.5        
N           7.32        2.61        52.65       
N           8.3         1.73        52.53       
N           8.55        0.94        53.51       
C           8.84        1.25        51.24       
H           6.47        1.02        57.49       
H           5.14        2.73        56.66       
H           8.90711     2.06272     50.51675    
H           9.79        0.74        51.38       
H           8.10238     0.51238     50.92388    
C           5.87        2.39        55.95       
C           6.9         2.34        53.91       
C           5.93        2.96        54.7        
C           8.96        -2.75       56.89       
C           10.08       -2.01       56.71       
S           7.53        -1.76       56.78       
H           10.58       -0.05       56.2        
H           11.04       -2.56       56.68       
C           9.78        -0.67       56.49       
C           8.42        -0.4        56.3        
C           10.56       -7.21       56.29       
C           9.61        -6.35       56.72       
N           11.62       -6.47       55.93       
C           11.47       -5.09       56.28       
C           8.22        -6.38       57.17       
O           7.33        -7.18       57.42       
O           12.39       -4.31       56.08       
C           6.86        -4.66       58.27       
C           12.74       -6.88       55.17       
H           13.61666    -7.09741    55.78016    
H           12.47       -7.64       54.46       
H           13.04       -6.04       54.52       
H           6.11        -4.03       57.78       
H           7.1842      -4.19172    59.19936    
H           6.42        -5.57       58.61       
N           7.99        -5.0        57.47       
C           10.08       -5.01       56.73       
C           9.01        -4.21       56.99       
C           9.32        -10.53      54.6        
C           10.53       -10.73      55.15       
S           8.69        -8.95       55.09       
H           12.12       -9.53       56.21       
H           11.01       -11.63      54.95       
C           11.11       -9.55       55.76       
C           10.21       -8.51       55.86       
C           6.8         -12.76      51.73       
C           8.08        -13.19      52.04       
C           6.47        -11.62      52.36       
N           10.09       -13.21      53.03       
N           9.82        -14.3       52.28       
N           8.67        -14.29      51.65       
C           10.85       -15.23      51.89       
H           5.54        -11.1       52.22       
H           6.82        -10.06      53.73       
H           11.61336    -15.2084    52.66776    
H           10.44       -16.26      51.81       
H           11.26461    -14.94668   50.92257    
C           7.29        -10.97      53.34       
C           8.97        -12.53      52.95       
C           8.59        -11.31      53.64       
C           5.34        -14.4       48.53       
C           4.33        -13.71      49.07       
S           6.89        -13.87      49.18       
H           4.1         -12.57      50.96       
H           3.33        -13.79      48.76       
C           4.8         -13.02      50.26       
C           6.1         -13.14      50.56       
C           6.96        -17.2       45.02       
C           5.86        -16.54      45.52       
N           8.05        -16.97      45.88       
C           7.69        -16.29      47.08       
C           4.5         -16.27      45.37       
O           3.63        -16.4       44.48       
O           8.49        -16.08      47.97       
C           2.77        -15.01      46.63       
C           9.36        -17.57      45.98       
H           9.25307     -18.58943   46.3507     
H           9.98        -17.0       46.65       
H           9.82        -17.5       45.0        
H           2.63        -13.98      46.75       
H           2.08929     -15.51157   47.31787    
H           2.31        -15.18      45.67       
N           4.15        -15.5       46.56       
C           6.32        -15.93      46.8        
C           5.27        -15.25      47.34       
C           7.41        -18.89      41.53       
C           6.09        -18.89      41.84       
S           8.37        -18.14      42.77       
H           4.94        -18.18      43.52       
H           5.23        -19.14      41.18       
C           5.89        -18.36      43.1        
C           7.0         -18.0       43.8        
C           9.47        -20.34      38.0        
C           8.09        -20.62      38.11       
C           10.01       -19.61      38.98       
N           6.14        -20.59      39.15       
N           6.18        -21.36      38.12       
N           7.23        -21.3       37.31       
C           5.15        -22.41      38.06       
H           11.06       -19.3       38.92       
H           9.87        -18.48      40.74       
H           4.44903     -22.29785   38.88714    
H           4.62        -22.34      37.13       
H           5.61766     -23.39418   38.03208    
C           9.3         -19.13      40.1        
C           7.43        -20.16      39.28       
C           8.01        -19.45      40.35       
C           11.13       -20.14      34.42       
C           11.95       -20.9       35.27       
S           9.71        -19.67      35.31       
H           12.02       -21.49      37.36       
H           12.93       -21.23      34.97       
C           11.51       -21.06      36.59       
C           10.22       -20.53      36.7        
C           10.06       -17.87      30.34       
C           10.79       -18.8       30.97       
N           9.7         -16.97      31.39       
C           9.99        -17.46      32.71       
C           11.51       -20.07      30.7        
O           11.8        -20.69      29.72       
O           9.79        -16.84      33.71       
C           12.51       -21.8       32.14       
C           9.57        -15.51      31.27       
H           8.65995     -15.19717   31.7819     
H           9.56        -15.11      30.22       
H           10.41       -14.96      31.64       
H           12.17       -22.36      33.01       
H           13.58109    -21.61917   32.23042    
H           12.27       -22.39      31.21       
N           11.76       -20.64      32.0        
C           10.69       -18.76      32.41       
C           11.3        -19.83      33.01       
C           9.13        -16.85      26.57       
C           10.14       -17.74      26.56       
S           8.74        -16.43      28.21       
H           11.33       -19.0       27.93       
H           10.64       -18.07      25.67       
C           10.53       -18.28      27.84       
C           9.88        -17.63      28.9        
C           6.77        -15.06      23.41       
C           7.72        -16.09      23.16       
C           6.78        -14.59      24.66       
N           9.13        -17.75      23.6        
N           8.85        -17.7       22.35       
N           7.9         -16.81      22.05       
C           9.48        -18.67      21.43       
H           6.02        -13.86      24.94       
H           7.3         -14.65      26.73       
H           8.77754     -19.49958   21.34972    
H           10.41       -18.96      21.91       
H           9.75819     -18.26663   20.45635    
C           7.46        -15.13      25.76       
C           8.44        -16.66      24.2        
C           8.32        -16.25      25.55       
H           32.08       79.53       -1.15       
H           6.53        -14.44      22.51       
