472

C           29.88       38.35       83.63       
C           29.71       38.13       84.95       
S           29.17       39.88       83.28       
H           28.67       38.96       86.67       
H           29.98       37.18       85.43       
C           29.02       39.13       85.66       
C           28.57       40.17       84.87       
C           33.34       35.2        82.02       
C           32.35       36.18       81.76       
N           33.28       35.05       83.35       
C           32.26       35.87       83.97       
C           31.81       37.07       80.77       
O           32.15       37.28       79.6        
O           31.96       35.78       85.17       
C           29.73       38.26       80.38       
C           34.44       34.96       84.18       
H           35.02796    35.87063    84.06528    
H           35.1        34.1        83.96       
H           34.16       34.76       85.24       
H           29.46       39.27       80.6        
H           28.83773    37.65532    80.21777    
H           30.22       38.28       79.4        
N           30.67       37.65       81.29       
C           31.61       36.58       82.91       
C           30.7        37.58       82.65       
C           36.05       33.37       79.94       
C           35.49       34.35       79.15       
S           35.15       33.27       81.38       
H           33.86       35.87       79.38       
H           35.88       34.52       78.14       
C           34.39       35.05       79.8        
C           34.28       34.66       81.08       
C           39.32       30.39       79.52       
C           38.73       31.13       78.47       
C           38.7        30.7        80.74       
N           37.59       32.74       77.35       
N           38.41       32.0        76.64       
N           39.08       30.98       77.2        
C           38.77       32.51       75.3        
H           38.98       30.1        81.63       
H           37.11       31.6        81.79       
H           38.13582    33.35317    75.02615    
H           39.79       32.93       75.29       
H           38.71941    31.75836    74.51223    
C           37.62       31.61       80.83       
C           37.76       32.15       78.58       
C           37.09       32.36       79.81       
C           42.0        27.47       79.86       
C           41.81       27.71       78.51       
S           40.82       28.4        80.73       
H           40.92       29.28       77.3        
H           42.32       27.18       77.71       
C           41.01       28.81       78.26       
C           40.4        29.41       79.38       
C           44.49       23.41       79.94       
C           43.81       24.39       80.65       
N           44.63       23.82       78.63       
C           43.73       24.94       78.49       
C           43.31       24.67       82.0        
O           43.31       24.1        83.05       
O           43.7        25.48       77.38       
C           42.56       26.84       83.03       
C           45.71       23.64       77.71       
H           45.32584    23.12779    76.82786    
H           46.56       23.05       78.12       
H           46.04       24.64       77.42       
H           41.54       27.09       83.09       
H           43.16703    27.74364    83.08518    
H           42.76       26.22       83.93       
N           42.78       26.05       81.83       
C           43.36       25.37       79.79       
C           42.72       26.36       80.46       
C           46.27       20.61       82.17       
C           46.15       20.21       80.85       
S           45.61       22.22       82.23       
H           45.35       20.89       78.96       
H           46.56       19.27       80.5        
C           45.57       21.2        79.98       
C           45.12       22.3        80.59       
C           47.96       18.76       85.84       
C           47.86       18.07       84.62       
C           47.52       20.05       85.74       
N           47.21       17.63       82.42       
N           47.81       16.62       83.1        
N           48.2        16.76       84.38       
C           47.44       15.3        82.65       
H           47.55       20.69       86.58       
H           46.6        21.57       84.66       
H           47.41909    15.22335    81.5629     
H           48.22       14.6        83.05       
H           46.52835    14.95544    83.13813    
C           46.91       20.54       84.58       
C           47.22       18.62       83.41       
C           46.75       19.89       83.35       
C           49.8        16.68       88.66       
C           49.35       17.86       89.19       
S           49.47       16.69       86.94       
H           48.07       19.54       88.56       
H           49.29       18.07       90.27       
C           48.59       18.61       88.27       
C           48.53       18.11       87.04       
C           50.97       13.92       92.39       
C           50.95       14.13       91.03       
N           50.24       14.99       92.95       
C           49.74       15.9        91.95       
C           51.46       13.6        89.73       
O           52.17       12.62       89.44       
O           49.18       17.0        92.22       
C           51.06       14.06       87.34       
C           50.14       15.45       94.37       
H           49.24918    15.08491    94.88113    
H           51.03       15.18       94.97       
H           50.24       16.55       94.48       
H           51.33       14.91       86.66       
H           50.25405    13.39797    87.02338    
H           52.03       13.58       87.32       
N           50.91       14.43       88.74       
C           50.28       15.35       90.72       
C           50.22       15.53       89.35       
C           53.61       11.44       93.84       
C           52.76       11.82       94.8        
S           53.25       12.28       92.37       
H           50.99       13.0        95.0        
H           52.86       11.38       95.79       
C           51.75       12.68       94.36       
C           51.79       12.99       93.08       
C           57.46       9.36        93.57       
C           56.85       9.59        94.85       
C           56.71       9.75        92.53       
N           55.26       10.29       96.33       
N           56.34       9.84        96.91       
N           57.31       9.39        96.12       
C           56.52       9.74        98.34       
H           57.01       9.64        91.52       
H           54.83       10.54       91.84       
H           56.38059    10.65714    98.91229    
H           55.89       9.05        98.83       
H           57.52711    9.34752     98.4807     
C           55.39       10.26       92.7        
C           55.55       10.23       95.0        
C           54.81       10.65       93.83       
C           60.82       7.43        93.63       
C           60.64       7.94        92.39       
S           59.47       7.84        94.57       
H           59.22       9.12        91.23       
H           61.34       7.76        91.61       
C           59.47       8.66        92.21       
C           58.68       8.66        93.35       
C           64.61       4.68        93.09       
C           63.75       5.28        93.98       
N           64.33       5.1         91.82       
C           63.01       5.75        91.83       
C           63.42       5.46        95.36       
O           63.8        4.94        96.41       
O           62.42       5.95        90.8        
C           61.73       6.73        96.72       
C           65.29       5.33        90.71       
H           65.4155     6.40373     90.57055    
H           64.96       4.83        89.8        
H           66.29       4.96        91.04       
H           60.68       6.76        96.72       
H           62.14044    7.69002     97.03305    
H           62.09       6.0         97.38       
N           62.27       6.38        95.37       
C           62.77       6.01        93.21       
C           61.87       6.6         94.06       
C           67.6        2.6         94.6        
C           67.36       2.27        93.28       
S           66.58       3.98        95.03       
H           65.82       2.69        91.74       
H           67.97       1.51        92.81       
C           66.23       2.91        92.72       
C           65.65       3.84        93.57       
C           70.75       1.05        97.24       
C           69.64       1.82        97.7        
C           70.79       0.9         95.84       
N           67.64       2.75        97.63       
N           68.15       2.75        98.86       
N           69.29       2.11        99.04       
C           67.52       3.29        100.06      
H           71.53       0.32        95.33       
H           69.88       1.29        93.97       
H           66.80204    4.05822     99.77282    
H           67.01       2.45        100.55      
H           68.28961    3.7044      100.71121   
C           69.74       1.41        95.02       
C           68.59       2.22        96.87       
C           68.62       2.07        95.49       
C           73.51       0.62        99.89       
C           73.8        -0.3        98.91       
S           72.28       1.7         99.41       
H           72.74       -0.9        97.02       
H           74.65       -1.04       99.0        
C           72.85       -0.25       97.86       
C           71.87       0.63        98.09       
C           76.36       -0.8        103.56      
C           75.58       0.22        102.96      
N           76.53       -1.76       102.67      
C           75.73       -1.48       101.45      
C           75.07       1.58        103.13      
O           75.24       2.4         104.01      
O           75.52       -2.34       100.61      
C           73.68       3.17        101.8       
C           77.67       -2.69       102.68      
H           78.40841    -2.3776     101.94159   
H           77.38       -3.75       102.39      
H           78.13       -2.53       103.66      
H           72.71       3.2         101.37      
H           74.37984    3.73862     101.18764   
H           73.51       3.71        102.69      
N           74.1        1.8         102.05      
C           75.12       -0.17       101.66      
C           74.2        0.74        101.16      
C           77.44       -1.1        107.32      
C           77.38       0.21        106.98      
S           77.11       -1.99       105.92      
H           77.01       1.47        105.23      
H           77.52       0.95        107.74      
C           77.13       0.44        105.63      
C           76.98       -0.65       104.86      
C           78.29       -3.43       110.93      
C           78.98       -2.26       110.61      
C           77.3        -3.72       110.06      
N           79.53       -0.41       109.51      
N           80.32       -0.71       110.55      
N           79.97       -1.65       111.32      
C           81.24       0.31        111.01      
H           76.71       -4.6        110.18      
H           76.29       -3.4        108.19      
H           81.29132    1.06509     110.22559   
H           80.73       0.65        111.93      
H           82.19671    -0.14391    111.26838   
C           77.02       -2.95       108.89      
C           78.66       -1.4        109.46      
C           77.7        -1.79       108.52      
C           78.59       -6.14       113.81      
C           79.85       -5.65       113.59      
S           77.48       -5.36       112.73      
H           80.77       -4.28       112.14      
H           80.73       -6.03       114.06      
C           79.86       -4.66       112.51      
C           78.65       -4.31       112.01      
C           75.63       -9.32       115.79      
C           77.0        -8.97       115.51      
N           74.89       -8.2        115.62      
C           75.72       -7.12       115.13      
C           78.33       -9.41       115.54      
O           78.82       -10.48      115.89      
O           75.23       -6.24       114.48      
C           80.47       -8.28       115.54      
C           73.48       -7.97       115.63      
H           73.17775    -7.7757     116.65907   
H           72.94       -8.75       115.2       
H           73.2        -7.07       115.01      
H           80.76       -7.26       115.84      
H           81.22685    -8.72982    114.89739   
H           80.41       -8.8        116.48      
N           79.12       -8.35       114.98      
C           77.05       -7.63       114.97      
C           78.31       -7.32       114.52      
C           73.92       -12.68      117.13      
C           75.22       -12.76      117.29      
S           73.5        -11.23      116.3       
H           77.07       -11.39      117.07      
H           75.77       -13.59      117.62      
C           75.96       -11.52      117.0       
C           75.15       -10.53      116.41      
C           70.67       -15.78      117.73      
C           72.06       -16.08      117.52      
C           70.51       -14.36      117.59      
N           74.2        -15.71      117.09      
N           73.94       -16.97      117.21      
N           72.69       -17.26      117.42      
C           74.93       -17.96      117.05      
H           69.5        -13.94      117.63      
H           71.21       -12.41      117.22      
H           75.80404    -17.4585    116.63447   
H           75.12       -18.35      118.02      
H           74.65024    -18.7634    116.36854   
C           71.56       -13.41      117.33      
C           73.02       -15.07      117.22      
C           72.86       -13.71      117.22      
C           67.16       -17.48      118.23      
C           68.1        -18.48      118.19      
S           67.94       -15.91      118.31      
H           70.31       -18.62      118.11      
H           67.89       -19.51      118.14      
C           69.42       -17.99      118.19      
C           69.53       -16.65      118.04      
C           62.57       -16.0       118.13      
C           63.44       -17.03      118.34      
N           63.28       -14.92      117.63      
C           64.71       -15.16      117.74      
C           63.57       -18.4       118.63      
O           62.75       -19.29      118.78      
O           65.54       -14.34      117.41      
C           65.4        -20.08      118.91      
C           62.82       -13.97      116.64      
H           62.56557    -14.48593   115.71416   
H           61.93       -13.45      116.99      
H           63.56       -13.24      116.37      
H           66.32       -20.11      119.54      
H           65.52757    -20.65071   117.99015   
H           64.62       -20.47      119.52      
N           64.96       -18.75      118.69      
C           64.8        -16.57      118.03      
C           65.71       -17.62      118.26      
C           58.82       -15.36      118.99      
C           58.96       -16.65      118.67      
S           60.29       -14.49      118.58      
H           60.57       -18.15      118.17      
H           58.16       -17.37      118.95      
C           60.29       -17.11      118.28      
C           61.14       -15.99      118.21      
C           55.04       -13.58      120.67      
C           56.13       -12.77      120.46      
C           55.21       -14.82      120.13      
N           58.2        -12.15      119.96      
N           57.52       -11.15      120.45      
N           56.3        -11.41      120.76      
C           58.19       -10.08      121.15      
H           54.42       -15.49      120.01      
H           56.42       -16.37      119.25      
H           59.25601    -10.30329   121.10678   
H           58.05       -9.1        120.68      
H           57.86704    -10.10871   122.19066   
C           56.4        -15.29      119.55      
C           57.36       -13.22      119.89      
C           57.59       -14.61      119.44      
C           51.85       -13.11      123.03      
C           52.81       -12.22      123.4       
S           52.55       -14.24      121.87      
H           54.75       -11.59      122.68      
H           52.7        -11.47      124.15      
C           53.92       -12.17      122.52      
C           53.96       -13.21      121.65      
C           48.41       -12.75      126.42      
C           48.78       -13.05      125.13      
N           49.47       -12.05      126.92      
C           50.54       -11.86      126.01      
C           48.29       -13.79      123.91      
O           47.24       -14.33      123.56      
O           51.66       -11.47      126.27      
C           49.34       -14.23      121.74      
C           49.76       -11.54      128.25      
H           50.05234    -12.35996   128.90597   
H           50.57       -10.81      128.28      
H           48.89       -11.01      128.66      
H           49.87       -15.16      121.58      
H           49.41865    -13.47206   120.96061   
H           48.36       -14.68      121.61      
N           49.49       -13.72      123.14      
C           50.16       -12.69      124.92      
C           50.61       -13.23      123.79      
C           45.02       -13.35      128.3       
C           44.77       -13.18      126.89      
S           46.69       -13.23      128.59      
H           45.93       -12.49      125.13      
H           43.85       -13.37      126.38      
C           45.95       -12.79      126.18      
C           47.08       -12.73      126.98      
C           42.46       -15.43      131.15      
C           42.04       -15.16      129.85      
C           43.75       -15.11      131.36      
N           42.01       -14.11      127.96      
N           40.92       -14.77      128.14      
N           40.81       -15.44      129.24      
C           39.76       -14.51      127.31      
H           44.17       -15.48      132.24      
H           45.68       -14.2       130.84      
H           39.98174    -13.75895   126.5518    
H           39.48       -15.41      126.82      
H           38.91585    -14.21638   127.93394   
C           44.61       -14.33      130.51      
C           42.79       -14.37      129.05      
C           44.12       -13.89      129.26      
C           39.91       -17.81      133.12      
C           40.81       -17.29      134.09      
S           40.29       -17.14      131.57      
H           42.59       -15.88      133.95      
H           40.7        -17.48      135.12      
C           41.79       -16.35      133.49      
C           41.59       -16.11      132.14      
C           37.05       -21.03      135.46      
C           37.35       -20.32      134.34      
N           37.89       -20.55      136.46      
C           38.88       -19.67      135.89      
C           36.92       -20.02      133.0       
O           36.06       -20.57      132.32      
O           39.95       -19.37      136.42      
C           38.39       -19.59      131.08      
C           37.71       -20.63      137.88      
H           37.87935    -19.68444   138.39512   
H           38.39       -21.38      138.21      
H           36.75       -20.93      138.08      
H           39.5        -19.46      130.92      
H           37.91215    -18.93385   130.35252   
H           38.11       -20.6       130.96      
N           37.92       -19.18      132.4       
C           38.46       -19.43      134.55      
C           38.84       -18.76      133.37      
C           34.09       -23.36      136.77      
C           33.84       -22.81      135.52      
S           35.74       -23.02      137.06      
H           34.67       -21.35      134.1       
H           32.86       -22.94      135.11      
C           34.87       -21.95      134.99      
C           35.93       -21.88      135.73      
C           31.53       -26.52      138.69      
C           32.5        -25.78      139.37      
C           31.42       -26.08      137.38      
N           34.01       -24.2       139.84      
N           33.69       -24.99      140.92      
N           32.89       -25.98      140.61      
C           34.79       -25.22      141.87      
H           30.78       -26.66      136.7       
H           32.15       -24.89      135.84      
H           35.57568    -24.49094   141.67181   
H           34.43       -25.09      142.91      
H           35.2071     -26.21959   141.74775   
C           32.29       -25.08      136.85      
C           33.29       -24.74      138.82      
C           33.24       -24.34      137.5       
C           29.35       -29.81      139.29      
C           29.42       -29.15      140.44      
S           30.36       -28.99      138.13      
H           30.45       -27.22      141.17      
H           28.95       -29.57      141.35      
C           30.22       -27.97      140.35      
C           30.76       -27.66      139.18      
C           25.66       -32.92      139.56      
C           26.78       -32.54      138.87      
N           25.49       -32.04      140.61      
C           26.65       -31.16      140.72      
C           27.65       -32.84      137.7       
O           27.65       -33.63      136.75      
O           26.79       -30.39      141.63      
C           29.79       -31.94      136.84      
C           24.33       -31.8       141.42      
H           24.47008    -32.1292    142.44961   
H           23.43       -32.24      140.92      
H           24.14       -30.78      141.43      
H           30.68       -31.46      137.34      
H           29.55492    -31.44135   135.89969   
H           30.03       -33.06      136.79      
N           28.69       -31.83      137.77      
C           27.43       -31.48      139.5       
C           28.51       -30.96      138.87      
C           22.72       -35.27      138.15      
C           23.64       -35.0       137.18      
S           23.25       -34.57      139.65      
H           25.42       -33.82      136.92      
H           23.51       -35.37      136.2       
C           24.71       -34.21      137.62      
C           24.64       -33.79      138.91      
C           18.73       -37.01      137.68      
C           19.33       -36.38      136.59      
C           19.39       -36.88      138.88      
N           20.9        -35.23      135.57      
N           19.9        -35.54      134.75      
N           18.9        -36.24      135.32      
C           19.78       -35.02      133.38      
H           18.91       -37.23      139.78      
H           21.18       -36.57      139.93      
H           19.01372    -35.58575   132.85005   
H           20.72       -35.17      132.9       
H           19.48648    -33.97067   133.40935   
C           20.68       -36.4       138.97      
C           20.66       -35.86      136.71      
C           21.39       -35.84      137.91      
H           27.72       40.7        85.03       
H           17.82       -37.57      137.57      
