472

C           75.67       89.4        37.98       
C           74.85       90.45       37.9        
S           77.18       89.85       38.52       
H           75.09       92.63       38.06       
H           73.81       90.39       37.5        
C           75.56       91.66       38.08       
C           76.86       91.55       38.42       
C           72.69       86.05       36.42       
C           73.77       86.4        37.15       
N           72.4        87.09       35.64       
C           73.18       88.25       35.97       
C           74.59       85.85       38.26       
O           74.67       84.8        38.82       
O           72.95       89.4        35.52       
C           76.58       86.75       39.48       
C           71.78       86.98       34.33       
H           72.54827    87.2205     33.59514    
H           70.94       87.66       34.34       
H           71.63       85.91       34.16       
H           76.84       87.69       40.03       
H           77.52674    86.48351    39.01014    
H           76.24       85.95       40.13       
N           75.51       86.97       38.52       
C           74.15       87.74       36.97       
C           75.13       88.07       37.83       
C           70.17       82.82       36.45       
C           71.36       82.47       36.93       
S           70.38       84.43       35.81       
H           73.4        83.46       37.41       
H           71.58       81.47       37.35       
C           72.39       83.56       37.0        
C           72.03       84.72       36.37       
C           66.97       80.28       34.96       
C           66.82       81.61       35.29       
C           68.15       79.73       35.4        
N           67.35       83.72       35.82       
N           66.06       83.57       35.5        
N           65.74       82.41       35.07       
C           65.16       84.69       35.4        
H           68.37       78.65       35.28       
H           70.16       80.13       36.28       
H           65.64806    85.61034    35.72073    
H           64.85       84.83       34.27       
H           64.23979    84.50736    35.95494    
C           69.18       80.54       35.99       
C           67.79       82.42       35.84       
C           69.08       81.94       36.13       
C           65.28       77.97       32.3        
C           64.31       78.55       33.06       
S           66.8        78.27       33.06       
H           64.23       80.29       34.61       
H           63.3        78.56       32.78       
C           64.78       79.5        34.07       
C           66.14       79.42       34.19       
C           62.91       75.06       29.31       
C           64.04       75.59       29.71       
N           61.91       75.67       29.98       
C           62.38       76.48       31.09       
C           65.48       75.55       29.54       
O           66.12       74.86       28.78       
O           61.67       76.94       31.91       
C           67.35       76.82       30.34       
C           60.66       75.97       29.33       
H           60.50195    77.04762    29.2869     
H           59.81       75.46       29.8        
H           60.74       75.77       28.24       
H           67.95       76.65       31.22       
H           67.44227    77.82792    29.93541    
H           67.83       76.07       29.69       
N           66.03       76.43       30.47       
C           63.82       76.5        30.84       
C           65.02       77.02       31.24       
C           61.9        72.02       27.02       
C           63.04       72.58       26.6        
S           61.38       73.05       28.41       
H           64.51       74.12       27.17       
H           63.53       72.24       25.65       
C           63.46       73.72       27.24       
C           62.64       74.15       28.22       
C           59.72       68.35       25.94       
C           60.98       68.66       25.36       
C           59.27       69.29       26.84       
N           62.88       69.91       24.92       
N           62.74       68.81       24.18       
N           61.78       67.94       24.53       
C           63.78       68.59       23.17       
H           58.25       69.19       27.27       
H           59.38       71.29       27.71       
H           63.99133    69.56918    22.74029    
H           64.6        68.11       23.78       
H           63.34301    67.92746    22.42288    
C           59.95       70.53       27.13       
C           61.75       69.83       25.64       
C           61.23       70.78       26.65       
C           57.86       65.13       24.33       
C           57.37       65.39       25.6        
S           59.23       66.21       24.15       
H           57.47       66.95       27.18       
H           56.51       64.92       25.95       
C           57.85       66.58       26.26       
C           58.99       67.09       25.59       
C           55.7        61.12       23.08       
C           56.56       62.11       22.72       
N           55.49       61.22       24.43       
C           56.03       62.45       24.94       
C           57.24       62.69       21.6        
O           57.23       62.49       20.46       
O           56.04       62.62       26.17       
C           58.92       64.47       21.31       
C           55.13       60.26       25.49       
H           55.57868    59.27149    25.39185    
H           55.25       60.6        26.47       
H           54.08       59.99       25.49       
H           59.69       64.94       21.82       
H           58.37526    65.24112    20.76526    
H           59.32       63.86       20.58       
N           57.94       63.83       22.14       
C           56.78       62.96       23.85       
C           57.61       64.03       23.46       
C           53.42       58.45       20.97       
C           54.43       58.96       20.18       
S           53.55       59.25       22.52       
H           56.06       60.49       20.31       
H           54.52       58.62       19.16       
C           55.25       59.98       20.86       
C           55.03       60.16       22.17       
C           50.13       55.49       20.24       
C           51.2        55.83       19.31       
C           50.36       56.1        21.4        
N           52.97       56.86       18.27       
N           52.39       55.95       17.46       
N           51.3        55.35       17.99       
C           53.18       55.39       16.39       
H           49.73       55.82       22.23       
H           51.5        57.45       22.66       
H           54.21071    55.74088    16.44117    
H           53.1        54.29       16.44       
H           52.76358    55.67232    15.42305    
C           51.43       57.05       21.64       
C           52.24       56.82       19.44       
C           52.4        57.45       20.68       
C           47.03       52.92       20.33       
C           47.39       53.09       19.02       
S           48.15       53.81       21.32       
H           48.88       54.23       17.86       
H           46.88       52.68       18.21       
C           48.55       53.91       18.84       
C           49.04       54.5        20.01       
C           42.65       50.87       20.2        
C           43.73       51.21       20.97       
N           42.91       51.17       18.9        
C           44.2        51.89       18.76       
C           44.3        51.06       22.3        
O           43.98       50.6        23.37       
O           44.48       52.5        17.75       
C           46.48       51.47       23.27       
C           42.1        51.06       17.71       
H           42.56466    50.34567    17.03035    
H           41.98       52.03       17.19       
H           41.03       50.82       17.92       
H           47.06       52.38       23.33       
H           47.19567    50.67715    23.05249    
H           46.0        51.44       24.21       
N           45.6        51.74       22.19       
C           44.78       51.8        20.13       
C           45.87       52.23       20.87       
C           39.26       49.0        21.31       
C           39.89       49.6        22.36       
S           40.22       49.27       19.91       
H           41.76       50.71       22.7        
H           39.47       49.53       23.38       
C           41.1        50.24       22.05       
C           41.41       50.28       20.72       
C           35.26       47.18       21.55       
C           35.9        47.28       20.35       
C           35.96       47.73       22.66       
N           37.58       47.59       18.97       
N           36.54       46.93       18.4        
N           35.49       46.8        19.14       
C           36.64       46.28       17.1        
H           35.5        47.76       23.58       
H           37.5        48.66       23.49       
H           37.57274    46.60716    16.64059    
H           36.62       45.18       17.23       
H           35.73847    46.49665    16.52693    
C           37.18       48.27       22.55       
C           37.21       47.71       20.29       
C           37.94       48.28       21.4        
C           31.95       45.01       21.58       
C           31.87       45.91       22.63       
S           33.32       45.3        20.69       
H           33.16       47.43       23.53       
H           30.97       46.01       23.16       
C           33.06       46.69       22.82       
C           33.9        46.55       21.77       
C           27.88       42.42       21.82       
C           29.11       42.64       21.2        
N           27.63       43.46       22.7        
C           28.78       44.32       22.72       
C           30.09       42.07       20.29       
O           30.09       41.1        19.64       
O           28.84       45.41       23.37       
C           32.45       42.19       20.42       
C           26.65       43.73       23.74       
H           27.00386    43.30393    24.6788     
H           25.71       43.21       23.55       
H           26.37       44.75       23.91       
H           33.1        42.46       21.25       
H           33.02319    42.20415    19.49299    
H           32.18       41.2        20.65       
N           31.19       42.96       20.4        
C           29.71       43.82       21.77       
C           30.94       44.03       21.19       
C           25.47       39.36       21.78       
C           26.08       39.47       20.55       
S           25.92       40.69       22.76       
H           27.63       40.6        19.6        
H           25.8        38.85       19.73       
C           27.01       40.46       20.49       
C           26.99       41.32       21.58       
C           22.77       36.26       23.32       
C           23.03       36.37       21.93       
C           23.37       37.25       24.1        
N           24.03       37.16       20.11       
N           23.37       36.03       19.86       
N           22.76       35.45       20.89       
C           23.37       35.38       18.56       
H           23.27       37.18       25.14       
H           24.67       38.97       24.36       
H           24.11868    35.88854    17.95258    
H           23.73       34.29       18.66       
H           22.35072    35.35934    18.17433    
C           24.12       38.34       23.63       
C           23.88       37.41       21.44       
C           24.44       38.43       22.29       
C           20.92       33.11       24.54       
C           21.15       33.84       25.69       
S           21.66       33.74       23.11       
H           22.12       35.74       26.1        
H           20.71       33.59       26.66       
C           21.76       35.05       25.31       
C           22.12       35.17       24.0        
C           19.91       29.07       22.46       
C           20.17       29.67       23.67       
N           19.94       30.01       21.48       
C           19.86       31.29       22.01       
C           20.43       29.47       25.1        
O           20.54       28.55       25.82       
O           19.78       32.31       21.31       
C           20.18       30.99       27.02       
C           19.9        29.85       20.02       
H           20.79139    30.25709    19.54272    
H           18.96       30.32       19.65       
H           19.89       28.83       19.73       
H           19.45       31.82       27.11       
H           21.06544    31.15424    27.6341     
H           19.7        30.09       27.35       
N           20.49       30.81       25.61       
C           20.17       31.03       23.44       
C           20.4        31.71       24.59       
C           20.63       25.11       22.57       
C           19.79       25.47       21.53       
S           20.97       26.63       23.32       
H           18.77       27.15       20.54       
H           19.32       24.68       20.91       
C           19.49       26.82       21.29       
C           19.99       27.6        22.27       
C           21.87       21.13       23.86       
C           22.24       22.35       24.62       
C           21.29       21.4        22.7        
N           22.34       24.46       25.2        
N           22.87       23.69       26.08       
N           22.78       22.43       25.87       
C           23.37       24.26       27.23       
H           21.03       20.57       22.02       
H           20.6        22.89       21.22       
H           23.83968    25.20658    26.96264    
H           22.57       24.43       27.97       
H           24.07533    23.52674    27.62107    
C           20.93       22.7        22.28       
C           21.93       23.59       24.23       
C           21.16       23.82       23.04       
C           22.05       17.31       24.7        
C           22.88       17.98       25.55       
S           21.29       18.48       23.66       
H           23.59       20.02       25.98       
H           23.38       17.38       26.33       
C           22.91       19.38       25.4        
C           22.15       19.8        24.32       
C           20.06       13.19       23.48       
C           21.1        13.85       24.0        
N           19.15       14.15       23.17       
C           19.65       15.5        23.52       
C           22.31       13.63       24.72       
O           22.92       12.64       24.91       
O           19.05       16.57       23.33       
C           24.21       14.98       25.5        
C           17.84       14.07       22.63       
H           17.14237    13.54854    23.28535    
H           17.45       15.08       22.47       
H           17.78       13.75       21.66       
H           24.36       15.7        26.25       
H           24.89227    14.94519    24.65065    
H           24.42       14.04       26.0        
N           22.85       14.89       25.04       
C           20.92       15.21       24.03       
C           21.92       15.87       24.71       
C           19.5        9.3         22.87       
C           20.39       9.54        24.01       
S           18.97       10.82       22.3        
H           21.03       11.24       25.16       
H           20.79       8.7         24.54       
C           20.5        10.9        24.31       
C           19.86       11.75       23.43       
C           18.42       5.75        20.57       
C           17.54       6.83        20.66       
C           19.68       5.9         21.15       
N           16.76       8.83        21.32       
N           15.87       8.08        20.64       
N           16.21       6.83        20.28       
C           14.5        8.55        20.58       
H           20.46       5.18        21.16       
H           20.93       7.11        22.48       
H           14.52112    9.61318     20.81939    
H           14.11       8.45        19.54       
H           13.85835    7.98591     21.2569     
C           19.97       7.04        21.93       
C           17.88       8.01        21.48       
C           19.12       8.12        22.09       
C           17.57       2.88        17.82       
C           18.3        2.38        18.81       
S           17.34       4.61        18.16       
H           19.38       3.09        20.58       
H           18.63       1.37        18.73       
C           18.68       3.32        19.83       
C           18.12       4.55        19.72       
C           17.92       -0.36       14.32       
C           17.2        0.66        14.88       
N           18.75       -0.91       15.33       
C           18.63       -0.14       16.57       
C           16.2        1.69        14.56       
O           15.42       1.81        13.61       
O           19.13       -0.5        17.64       
C           15.16       3.47        15.85       
C           19.59       -2.12       15.34       
H           18.99503    -2.99069    15.61572    
H           19.97       -2.32       14.36       
H           20.53       -2.07       15.94       
H           15.43       4.45        16.28       
H           14.30901    2.95529     16.29608    
H           14.94       3.73        14.81       
N           16.25       2.54        15.7        
C           17.75       0.94        16.2        
C           17.28       2.15        16.59       
C           18.7        -1.36       10.48       
C           18.02       -0.12       10.53       
S           18.78       -1.94       12.14       
H           17.14       1.2         12.0        
H           17.77       0.4         9.61        
C           17.64       0.26        11.83       
C           18.02       -0.56       12.88       
C           21.12       -3.12       7.26        
C           20.32       -1.95       7.06        
C           21.01       -3.77       8.47        
N           18.83       -0.38       7.51        
N           19.34       -0.26       6.27        
N           20.26       -1.13       5.94        
C           19.04       0.86        5.44        
H           21.67       -4.57       8.7         
H           20.47       -3.51       10.45       
H           18.39403    1.56154     5.96789     
H           19.98       1.35        5.18        
H           18.49631    0.54226     4.55032     
C           20.27       -3.13       9.49        
C           19.48       -1.47       8.07        
C           19.45       -1.97       9.37        
C           23.27       -5.25       4.76        
C           23.42       -3.96       4.41        
S           22.44       -5.41       6.32        
H           22.59       -1.96       5.01        
H           23.79       -3.64       3.46        
C           22.69       -3.06       5.2         
C           22.05       -3.65       6.24        
C           26.35       -7.44       1.7         
C           25.39       -7.57       2.68        
N           26.82       -6.12       1.65        
C           26.07       -5.32       2.59        
C           24.41       -8.46       3.22        
O           24.1        -9.6        3.06        
O           26.05       -4.18       2.66        
C           22.73       -8.33       5.06        
C           27.99       -5.51       1.04        
H           27.64       -4.87862    0.22332     
H           28.63       -6.24       0.6         
H           28.64       -5.07       1.77        
H           21.89       -7.68       5.27        
H           23.31532    -8.68966    5.90625     
H           22.38       -9.26       4.61        
N           23.59       -7.66       4.14        
C           25.12       -6.27       3.2         
C           24.0        -6.31       4.09        
C           28.34       -10.17      -0.46       
C           27.4        -10.76      0.38        
S           27.98       -8.49       -0.34       
H           26.08       -10.25      2.08        
H           27.24       -11.86      0.44        
C           26.7        -9.92       1.31        
C           26.92       -8.58       1.04        
C           30.65       -12.04      -3.59       
C           31.05       -10.83      -3.04       
C           29.36       -12.41      -3.32       
N           30.99       -9.16       -1.55       
N           32.04       -9.01       -2.41       
N           32.14       -9.98       -3.28       
C           32.86       -7.76       -2.42       
H           28.86       -13.26      -3.78       
H           27.69       -12.21      -2.09       
H           32.52276    -7.13369    -1.5941     
H           33.87       -8.11       -2.29       
H           32.73733    -7.18273    -3.33641    
C           28.69       -11.83      -2.23       
C           30.33       -10.28      -1.97       
C           29.12       -10.77      -1.5        
C           33.1        -13.31      -6.48       
C           32.18       -14.26      -6.31       
S           32.91       -12.01      -5.33       
H           30.36       -14.57      -5.23       
H           32.16       -15.22      -6.88       
C           31.24       -13.87      -5.36       
C           31.41       -12.66      -4.69       
C           36.62       -15.64      -8.79       
C           36.09       -14.47      -8.33       
N           35.82       -16.64      -8.35       
C           34.69       -16.07      -7.65       
C           36.23       -13.05      -8.47       
O           37.08       -12.4       -9.15       
O           33.72       -16.72      -7.33       
C           34.97       -11.06      -7.82       
C           36.22       -17.98      -7.89       
H           36.52401    -17.95172   -6.84364    
H           37.08       -18.32      -8.54       
H           35.45       -18.77      -7.89       
H           35.05       -10.61      -6.8        
H           34.03901    -10.7641    -8.30354    
H           35.82       -10.6       -8.36       
N           35.13       -12.49      -7.78       
C           34.89       -14.66      -7.64       
C           34.34       -13.49      -7.24       
C           38.82       -16.4       -11.96      
C           39.18       -15.2       -11.39      
S           37.63       -17.08      -10.88      
H           38.69       -14.0       -9.61       
H           39.87       -14.53      -11.93      
C           38.55       -14.91      -10.12      
C           37.68       -15.86      -9.67       
C           39.49       -17.97      -16.0       
C           39.6        -16.62      -15.74      
C           39.17       -18.75      -14.92      
N           39.47       -14.73      -14.46      
N           39.66       -14.47      -15.75      
N           39.67       -15.51      -16.53      
C           39.6        -13.06      -16.21      
H           38.85       -19.75      -15.04      
H           38.7        -18.91      -12.92      
H           39.75938    -12.4086    -15.35071   
H           38.5        -13.0       -16.48      
H           40.29763    -12.83472   -17.01664   
C           38.97       -18.21      -13.64      
C           39.38       -16.09      -14.42      
C           39.05       -16.9       -13.32      
H           77.26       92.27       39.23       
H           39.09       -18.3       -16.97      
