472

C           77.88       39.68       60.61       
C           77.71       40.19       61.86       
S           79.33       40.49       60.12       
H           78.69       41.27       63.48       
H           76.86       39.88       62.41       
C           78.7        41.02       62.43       
C           79.77       41.2        61.6        
C           75.86       37.34       56.77       
C           75.73       37.96       57.99       
N           77.23       37.36       56.55       
C           77.97       38.12       57.57       
C           74.67       38.47       58.87       
O           73.48       38.52       58.78       
O           79.11       38.15       57.73       
C           74.66       39.89       60.93       
C           78.05       36.55       55.66       
H           78.60772    37.15714    54.94696    
H           77.31       35.89       55.13       
H           78.75       35.83       56.24       
H           75.16       40.77       61.3        
H           74.22651    39.17225    61.62643    
H           73.82       40.35       60.42       
N           75.41       39.25       59.87       
C           76.93       38.57       58.48       
C           76.81       39.11       59.74       
C           73.19       36.16       54.16       
C           72.68       36.02       55.45       
S           74.84       36.79       54.18       
H           73.31       36.54       57.38       
H           71.7        35.58       55.68       
C           73.6        36.46       56.4        
C           74.88       36.77       55.89       
C           71.87       34.7        50.26       
C           71.22       34.41       51.43       
C           72.92       35.62       50.38       
N           70.61       34.53       53.58       
N           69.75       33.87       52.82       
N           70.11       33.66       51.65       
C           68.76       32.94       53.37       
H           73.47       35.94       49.53       
H           74.35       36.45       51.64       
H           68.72486    33.186      54.4313     
H           67.78       33.16       52.89       
H           69.0456     31.90905    53.16102    
C           73.37       35.97       51.68       
C           71.54       34.97       52.7        
C           72.67       35.77       52.86       
C           70.91       32.41       47.07       
C           71.67       33.47       46.69       
S           70.78       32.58       48.8        
H           72.57       35.35       47.51       
H           71.89       33.63       45.59       
C           72.09       34.39       47.74       
C           71.63       34.04       48.97       
C           70.08       30.08       42.91       
C           69.99       30.13       44.27       
N           70.39       31.43       42.49       
C           70.59       32.26       43.61       
C           69.75       29.27       45.43       
O           69.54       28.09       45.51       
O           70.74       33.46       43.47       
C           69.98       29.52       47.87       
C           70.84       31.83       41.19       
H           71.92804    31.88842    41.16079    
H           70.35       32.77       40.9        
H           70.59       31.11       40.4        
H           69.56       30.07       48.7        
H           71.02331    29.28975    48.08586    
H           69.3        28.65       47.79       
N           69.83       30.15       46.54       
C           70.35       31.43       44.81       
C           70.29       31.41       46.18       
C           69.1        27.25       40.38       
C           69.48       26.69       41.56       
S           69.24       28.96       40.48       
H           70.25       27.25       43.5        
H           69.35       25.61       41.74       
C           70.01       27.59       42.53       
C           69.98       28.87       42.09       
C           67.9        25.27       36.65       
C           67.72       24.65       37.89       
C           68.5        26.49       36.79       
N           67.7        24.31       40.13       
N           67.31       23.27       39.4        
N           67.34       23.38       38.12       
C           66.55       22.13       39.97       
H           68.67       27.02       35.9        
H           69.39       28.02       37.97       
H           66.69024    22.17908    41.04983    
H           65.51       22.3        39.74       
H           66.78922    21.17311    39.50606    
C           68.75       27.15       38.02       
C           68.0        25.25       39.15       
C           68.52       26.61       39.23       
C           67.42       23.13       33.39       
C           67.66       24.42       33.09       
S           67.43       22.95       35.09       
H           67.83       26.38       34.01       
H           67.63       24.8        32.08       
C           67.71       25.3        34.15       
C           67.71       24.65       35.34       
C           68.1        20.89       29.15       
C           67.81       20.82       30.52       
N           68.35       22.26       28.9        
C           68.1        23.05       30.04       
C           67.58       19.85       31.55       
O           67.74       18.62       31.56       
O           68.05       24.25       29.87       
C           67.09       19.96       33.97       
C           69.04       22.91       27.82       
H           68.3191     23.37646    27.14857    
H           69.83       23.63       28.12       
H           69.71       22.26       27.34       
H           66.45       20.55       34.64       
H           67.88508    19.59673    34.62114    
H           66.4        19.24       33.63       
N           67.47       20.67       32.76       
C           67.74       22.13       31.15       
C           67.42       22.02       32.44       
C           68.66       17.65       27.11       
C           68.38       18.66       26.24       
S           68.87       18.29       28.71       
H           67.95       20.87       26.54       
H           68.29       18.47       25.16       
C           68.14       19.89       26.93       
C           68.22       19.8        28.32       
C           69.61       13.33       26.49       
C           69.13       14.11       25.43       
C           69.73       13.99       27.72       
N           68.52       16.04       24.41       
N           68.6        14.98       23.56       
N           68.98       13.84       24.15       
C           68.65       15.06       22.11       
H           70.14       13.49       28.61       
H           69.69       15.85       28.89       
H           67.92211    15.8219     21.83109    
H           69.68       15.36       21.79       
H           68.51446    14.0898     21.63204    
C           69.46       15.4        27.87       
C           68.81       15.51       25.59       
C           68.97       16.21       26.87       
C           70.47       9.51        25.57       
C           70.03       9.56        26.86       
S           70.73       11.17       25.0        
H           69.44       11.07       28.31       
H           69.83       8.67        27.4        
C           69.86       10.9        27.34       
C           69.92       11.88       26.36       
C           70.61       4.74        24.59       
C           70.84       6.03        24.16       
N           70.33       4.77        25.91       
C           70.18       6.15        26.38       
C           71.18       6.87        23.02       
O           71.38       6.63        21.82       
O           69.7        6.33        27.46       
C           70.97       9.25        22.48       
C           70.08       3.67        26.87       
H           69.00759    3.50665     26.97653    
H           70.48       3.91        27.84       
H           70.51       2.75        26.7        
H           71.46       10.19       22.76       
H           69.95364    9.37883     22.10781    
H           71.7        8.99        21.64       
N           71.11       8.22        23.5        
C           70.6        6.96        25.27       
C           70.81       8.3         24.83       
C           70.5        1.3         22.55       
C           71.07       2.33        21.85       
S           70.18       1.91        24.18       
H           71.79       4.41        22.09       
H           71.5        2.12        20.81       
C           71.16       3.58        22.51       
C           70.76       3.53        23.8        
C           70.38       -3.0        21.86       
C           69.42       -2.36       22.66       
C           71.2        -2.18       21.14       
N           68.42       -0.68       23.64       
N           67.89       -1.84       23.88       
N           68.5        -2.91       23.5        
C           67.12       -2.05       25.05       
H           71.86       -2.66       20.5        
H           72.0        -0.18       20.81       
H           66.70155    -1.07834    25.31242    
H           66.31       -2.79       24.83       
H           67.72232    -2.47022    25.85543    
C           71.23       -0.74       21.36       
C           69.33       -1.0        22.8        
C           70.27       -0.09       22.15       
C           72.05       -6.41       22.35       
C           70.69       -6.62       22.59       
S           72.34       -4.88       21.66       
H           68.8        -5.47       22.5        
H           70.33       -7.55       23.16       
C           69.87       -5.51       22.21       
C           70.63       -4.42       21.83       
C           73.85       -9.42       25.68       
C           74.07       -8.69       24.53       
N           72.56       -9.24       26.06       
C           71.9        -8.4        25.18       
C           75.02       -8.24       23.49       
O           76.23       -8.52       23.36       
O           70.66       -8.22       25.3        
C           74.92       -7.19       21.34       
C           72.03       -9.4        27.46       
H           71.80049    -8.40546    27.84252    
H           72.82       -9.73       28.14       
H           71.17       -10.01      27.57       
H           74.64       -6.19       20.97       
H           74.61937    -7.93442    20.60274    
H           75.98       -7.09       21.52       
N           74.29       -7.45       22.64       
C           72.87       -7.94       24.15       
C           73.01       -7.16       23.03       
C           76.26       -11.96      27.69       
C           77.02       -11.13      26.89       
S           74.56       -11.59      27.35       
H           76.66       -9.42       25.49       
H           78.06       -11.15      26.8        
C           76.21       -10.22      26.08       
C           74.88       -10.14      26.38       
C           77.16       -15.27      30.47       
C           78.24       -14.58      29.8        
C           75.92       -14.81      30.24       
N           79.19       -13.26      28.24       
N           80.1        -14.08      28.85       
N           79.59       -14.87      29.8        
C           81.42       -14.31      28.22       
H           75.08       -15.24      30.73       
H           74.63       -13.51      29.18       
H           81.63567    -13.52383   27.49645    
H           82.12       -14.4       29.05       
H           81.38603    -15.23387   27.64258    
C           75.63       -13.77      29.38       
C           78.01       -13.56      28.84       
C           76.66       -13.06      28.62       
C           78.06       -17.6       33.49       
C           76.82       -17.92      32.99       
S           78.8        -16.36      32.46       
H           75.31       -17.18      31.57       
H           76.2        -18.58      33.58       
C           76.37       -17.16      31.94       
C           77.33       -16.31      31.49       
C           77.85       -19.9       37.8        
C           78.6        -19.13      36.86       
N           76.98       -20.64      37.0        
C           77.05       -20.24      35.65       
C           79.64       -18.1       36.81       
O           80.39       -17.64      37.59       
O           76.34       -20.79      34.82       
C           80.58       -16.69      35.08       
C           76.42       -21.95      37.32       
H           76.91017    -22.74128   36.7528     
H           75.3        -21.97      37.14       
H           76.58       -22.12      38.39       
H           80.24       -15.84      34.37       
H           81.42583    -17.1933    34.61165    
H           80.92       -16.18      35.97       
N           79.57       -17.6       35.44       
C           78.06       -19.17      35.57       
C           78.58       -18.17      34.71       
C           79.31       -19.51      41.43       
C           78.04       -20.14      41.48       
S           79.8        -19.55      39.78       
H           76.44       -20.66      40.04       
H           77.54       -20.42      42.4        
C           77.42       -20.34      40.24       
C           78.2        -20.01      39.2        
C           81.44       -17.78      44.86       
C           80.37       -18.6       45.03       
C           81.65       -17.37      43.56       
N           78.89       -20.1       44.45       
N           79.04       -20.11      45.74       
N           79.89       -19.16      46.19       
C           78.41       -21.16      46.5        
H           82.34       -16.6       43.3        
H           81.26       -17.6       41.46       
H           78.13495    -21.97792   45.83408    
H           79.1        -21.67      47.14       
H           77.64599    -20.77429   47.175      
C           81.05       -18.06      42.44       
C           79.76       -19.21      43.94       
C           80.14       -19.06      42.57       
C           84.41       -16.17      46.99       
C           83.41       -16.53      47.82       
S           83.86       -16.43      45.36       
H           81.45       -17.44      47.73       
H           83.53       -16.36      48.89       
C           82.31       -17.2       47.15       
C           82.36       -17.22      45.8        
C           87.51       -13.84      49.79       
C           87.18       -14.19      48.53       
N           86.34       -13.82      50.53       
C           85.24       -14.36      49.78       
C           87.77       -14.32      47.23       
O           88.83       -13.84      46.74       
O           84.09       -14.41      50.13       
C           86.98       -15.5       45.22       
C           86.06       -13.59      51.96       
H           86.31269    -14.51414   52.47983    
H           86.57       -12.74      52.39       
H           84.97       -13.37      52.1        
H           86.26       -15.02      44.54       
H           87.21476    -16.55285   45.0635     
H           87.85       -14.97      44.93       
N           86.8        -15.24      46.61       
C           85.79       -14.65      48.45       
C           85.59       -15.37      47.28       
C           91.33       -13.57      50.56       
C           90.66       -12.94      51.64       
S           90.21       -13.93      49.21       
H           88.59       -12.69      52.16       
H           91.15       -12.53      52.52       
C           89.25       -13.02      51.39       
C           88.85       -13.54      50.2        
C           95.6        -15.12      50.25       
C           95.01       -14.53      51.43       
C           94.71       -15.0       49.17       
N           93.55       -13.32      52.76       
N           94.58       -13.83      53.4        
N           95.53       -14.44      52.69       
C           94.82       -13.58      54.84       
H           95.01       -15.46      48.23       
H           92.86       -14.47      48.3        
H           93.92808    -13.11211   55.25672    
H           95.0        -14.55      55.35       
H           95.6833     -12.93618   55.00827    
C           93.36       -14.45      49.26       
C           93.73       -13.82      51.48       
C           92.8        -13.9       50.39       
C           98.91       -16.95      49.03       
C           98.94       -16.85      50.41       
S           97.59       -15.95      48.51       
H           97.83       -16.01      52.06       
H           99.69       -17.41      51.05       
C           97.87       -16.11      50.97       
C           96.94       -15.79      50.1        
C           100.05      -19.49      45.25       
C           100.56      -18.85      46.38       
N           98.67       -19.2       45.18       
C           98.31       -18.21      46.1        
C           101.73      -18.64      47.24       
O           102.85      -19.12      47.18       
O           97.18       -17.85      46.24       
C           101.97      -17.92      49.57       
C           97.64       -19.59      44.2        
H           97.8724     -19.0453    43.28491    
H           97.6        -20.69      44.13       
H           96.65       -19.35      44.42       
H           101.55      -18.41      50.42       
H           102.34023   -16.9182    49.78778    
H           102.85      -18.58      49.38       
N           101.17      -17.98      48.36       
C           99.52       -18.06      46.95       
C           99.86       -17.6       48.13       
C           101.33      -22.22      42.68       
C           102.46      -21.53      43.09       
S           99.95       -21.6       43.49       
H           102.9       -19.97      44.61       
H           103.44      -21.88      42.8        
C           102.13      -20.54      44.16       
C           100.74      -20.42      44.4        
C           100.91      -25.76      39.98       
C           99.88       -24.73      40.19       
C           102.07      -25.36      40.59       
N           98.82       -22.95      41.1        
N           98.09       -23.63      40.27       
N           98.62       -24.72      39.76       
C           96.72       -23.19      39.98       
H           102.95      -25.92      40.39       
H           103.26      -23.85      41.65       
H           96.56218    -22.147     40.25447    
H           96.52       -23.36      38.88       
H           96.03896    -23.89255   40.46032    
C           102.27      -24.17      41.37       
C           100.01      -23.61      41.1        
C           101.25      -23.37      41.79       
C           100.04      -28.14      36.92       
C           100.95      -28.73      37.79       
S           99.8        -26.58      37.56       
H           102.03      -28.42      39.68       
H           101.38      -29.62      37.58       
C           101.3       -28.03      38.94       
C           100.72      -26.81      39.0        
C           100.47      -30.67      32.87       
C           99.73       -29.77      33.55       
N           101.37      -31.17      33.72       
C           101.36      -30.55      34.96       
C           98.68       -28.76      33.41       
O           97.89       -28.43      32.59       
O           102.15      -30.76      35.81       
C           97.94       -26.87      34.87       
C           101.83      -32.58      33.88       
H           101.22598   -33.04575   34.65868    
H           102.83      -32.72      34.22       
H           101.68      -33.15      32.93       
H           98.44       -26.01      35.27       
H           97.16146    -27.09047   35.60032    
H           97.55       -26.56      33.9        
N           98.78       -28.04      34.67       
C           100.31      -29.59      34.87       
C           99.7        -28.54      35.55       
C           101.12      -31.57      29.1        
C           100.04      -30.84      29.17       
S           101.77      -31.87      30.65       
H           98.75       -29.95      30.76       
H           99.51       -30.37      28.33       
C           99.64       -30.57      30.53       
C           100.47      -31.05      31.47       
C           103.69      -32.4       25.5        
C           102.9       -31.27      25.66       
C           103.58      -33.24      26.6        
N           101.36      -29.79      26.62       
N           101.88      -29.32      25.46       
N           102.66      -30.2       24.87       
C           101.49      -28.03      24.87       
H           104.26      -34.13      26.72       
H           102.65      -33.73      28.52       
H           100.94951   -27.48249   25.64214    
H           102.38      -27.47      24.64       
H           100.8924    -28.15094   23.96648    
C           102.73      -32.96      27.76       
C           101.98      -30.97      26.8        
C           101.93      -31.84      27.9        
C           106.23      -32.29      22.57       
C           106.11      -33.6       23.08       
S           105.19      -31.26      23.44       
H           105.21      -34.76      24.65       
H           106.66      -34.38      22.61       
C           105.37      -33.8       24.2        
C           104.61      -32.63      24.35       
C           107.92      -32.7       18.05       
C           107.52      -31.9       19.1        
N           107.79      -34.01      18.49       
C           107.47      -34.05      19.9        
C           107.33      -30.51      19.45       
O           107.64      -29.44      18.92       
O           107.22      -35.16      20.42       
C           107.34      -29.42      21.6        
C           108.33      -35.25      17.95       
H           109.32859   -35.43357   18.3465     
H           108.43      -35.15      16.9        
H           107.66      -35.97      18.28       
H           107.51      -29.64      22.67       
H           106.47121   -28.76311   21.55762    
H           108.31      -28.92      21.22       
N           107.07      -30.61      20.86       
C           107.26      -32.68      20.27       
C           106.77      -31.93      21.25       
C           108.61      -32.0       14.18       
C           108.01      -30.9       14.77       
S           109.0       -33.14      15.46       
H           107.31      -30.22      16.77       
H           107.57      -30.11      14.18       
C           107.83      -31.0       16.19       
C           108.12      -32.24      16.68       
C           109.49      -33.32      10.15       
C           109.08      -32.04      10.46       
C           109.81      -34.15      11.21       
N           108.55      -30.37      11.8        
N           108.28      -30.04      10.55       
N           108.6       -31.02      9.7         
C           108.25      -28.64      10.28       
H           110.15      -35.16      11.07       
H           109.61      -34.48      13.36       
H           108.54147   -28.12993   11.19813    
H           107.27      -28.47      9.81        
H           108.9653    -28.42541   9.48602     
C           109.56      -33.72      12.58       
C           108.83      -31.65      11.8        
C           109.01      -32.5       12.85       
H           80.81       41.26       61.92       
H           109.55      -33.7       9.14        
