472

C           4.15        40.49       17.48       
C           3.96        41.8        17.04       
S           3.47        39.49       16.24       
H           3.41        42.93       15.25       
H           4.32        42.67       17.51       
C           3.46        41.97       15.76       
C           3.15        40.78       15.13       
C           5.46        40.66       22.07       
C           5.22        39.86       21.01       
N           5.13        41.99       21.71       
C           4.58        42.05       20.45       
C           5.2         38.51       20.44       
O           5.59        37.45       20.89       
O           4.12        43.14       20.04       
C           5.33        37.49       18.23       
C           5.8         43.2        22.19       
H           6.65714     43.43245    21.55804    
H           5.85        43.15       23.23       
H           5.16        44.11       22.08       
H           5.59        37.77       17.2        
H           4.56975     36.70902    18.24382    
H           6.37        37.24       18.56       
N           4.93        38.63       19.07       
C           4.79        40.7        19.93       
C           4.56        39.97       18.77       
C           7.04        38.78       25.26       
C           6.53        40.05       25.63       
S           6.75        38.62       23.55       
H           5.52        41.76       24.73       
H           6.62        40.45       26.65       
C           5.97        40.8        24.53       
C           5.94        40.13       23.33       
C           8.69        35.77       27.91       
C           8.49        37.11       28.35       
C           8.44        35.48       26.58       
N           7.8         39.18       28.14       
N           8.31        38.88       29.32       
N           8.69        37.66       29.56       
C           9.06        39.92       30.1        
H           8.65        34.49       26.16       
H           7.7         36.19       24.63       
H           8.46476     40.82337    29.96695    
H           9.17        39.66       31.16       
H           10.06949    40.03295    29.70468    
C           7.93        36.47       25.67       
C           7.98        38.04       27.43       
C           7.68        37.75       26.07       
C           11.14       33.6        30.17       
C           10.39       32.73       29.44       
S           10.87       35.18       29.55       
H           8.92        32.92       27.78       
H           10.47       31.62       29.58       
C           9.55        33.44       28.47       
C           9.51        34.8        28.62       
C           14.16       34.05       33.83       
C           13.74       33.3        32.78       
N           13.43       35.23       33.78       
C           12.48       35.23       32.7        
C           14.02       32.05       32.05       
O           14.93       31.17       32.14       
O           11.62       36.08       32.54       
C           13.42       31.25       29.78       
C           13.69       36.49       34.56       
H           13.87485    37.30761    33.86326    
H           14.58       36.5        35.15       
H           12.92       36.65       35.25       
H           13.26       31.73       28.85       
H           12.91252    30.28578    29.751      
H           14.52       31.04       29.89       
N           13.1        32.06       30.92       
C           12.71       33.95       32.1        
C           12.26       33.2        31.05       
C           17.54       33.06       35.66       
C           16.77       33.92       36.44       
S           16.63       32.7        34.19       
H           14.81       34.81       36.45       
H           17.14       34.29       37.37       
C           15.54       34.25       35.93       
C           15.32       33.72       34.64       
C           21.73       32.15       36.0        
C           21.21       33.45       36.38       
C           20.77       31.2        35.82       
N           19.67       35.08       36.5        
N           20.88       35.47       36.74       
N           21.85       34.55       36.61       
C           21.02       36.76       37.42       
H           21.13       30.2        35.61       
H           18.64       30.6        35.66       
H           20.63627    36.64416    38.43362    
H           22.04       37.13       37.36       
H           20.41908    37.45504    36.83356    
C           19.38       31.49       35.75       
C           19.86       33.75       36.23       
C           18.89       32.79       35.85       
C           25.56       31.75       35.07       
C           25.11       30.63       35.7        
S           24.2        32.88       35.14       
H           23.21       29.89       36.66       
H           25.78       29.84       35.92       
C           23.74       30.66       36.08       
C           23.15       31.86       35.97       
C           30.3        31.05       35.28       
C           29.21       31.78       34.79       
N           29.81       30.19       36.27       
C           28.46       30.43       36.42       
C           28.95       32.78       33.86       
O           29.67       33.63       33.37       
O           27.86       30.02       37.42       
C           26.84       33.63       32.89       
C           30.41       29.01       36.97       
H           30.38051    28.14009    36.31388    
H           31.44       29.13       37.41       
H           29.89       28.84       37.84       
H           25.89       33.98       33.24       
H           26.72939    33.00321    32.00512    
H           27.32       34.61       32.72       
N           27.53       32.9        33.95       
C           28.04       31.37       35.43       
C           26.96       32.0        34.87       
C           33.59       30.24       33.28       
C           33.73       30.09       34.64       
S           31.94       30.84       33.01       
H           32.69       30.55       36.53       
H           34.66       29.71       35.04       
C           32.7        30.63       35.43       
C           31.62       31.06       34.71       
C           36.26       28.81       29.96       
C           35.24       29.74       29.77       
C           36.29       28.37       31.3        
N           33.33       30.91       30.17       
N           33.74       30.95       28.92       
N           34.89       30.35       28.69       
C           32.96       31.65       27.89       
H           37.13       27.69       31.58       
H           35.78       28.81       33.39       
H           31.91679    31.72001    28.19806    
H           33.35       32.64       27.78       
H           33.17554    31.11834    26.96319    
C           35.62       29.04       32.36       
C           34.29       30.12       30.81       
C           34.48       29.8        32.16       
C           38.52       27.65       27.01       
C           38.57       26.65       27.9        
S           37.26       28.73       27.35       
H           37.85       26.44       30.0        
H           39.17       25.72       27.73       
C           37.87       27.06       29.13       
C           37.11       28.17       28.99       
C           40.34       25.49       22.99       
C           40.01       26.62       23.67       
N           39.57       24.54       23.62       
C           39.04       24.99       24.97       
C           40.18       28.02       23.66       
O           40.78       28.75       22.91       
O           38.35       24.27       25.67       
C           39.39       30.04       25.02       
C           39.14       23.18       23.18       
H           39.75832    22.44665    23.69766    
H           39.32       22.97       22.13       
H           38.08       23.12       23.25       
H           39.43       30.37       26.14       
H           38.47934    30.46356    24.59644    
H           40.24       30.49       24.5        
N           39.46       28.57       24.81       
C           39.36       26.38       24.96       
C           39.06       27.5        25.64       
C           42.61       24.59       19.88       
C           42.1        25.86       19.72       
S           41.75       23.85       21.23       
H           40.99       27.26       20.94       
H           42.39       26.45       18.87       
C           41.25       26.24       20.81       
C           40.96       25.31       21.72       
C           45.83       22.39       17.77       
C           45.33       23.56       17.23       
C           45.25       22.0        18.96       
N           43.98       25.34       17.1        
N           44.81       25.29       16.1        
N           45.62       24.29       16.13       
C           45.15       26.49       15.27       
H           45.64       21.16       19.53       
H           43.96       22.31       20.64       
H           44.28614    27.14888    15.18215    
H           45.92       27.03       15.84       
H           45.4831     26.14273    14.29197    
C           44.28       22.71       19.64       
C           44.24       24.25       17.88       
C           43.65       23.82       19.15       
C           48.89       20.0        17.03       
C           48.64       20.7        15.85       
S           47.89       20.68       18.23       
H           47.07       22.11       15.0        
H           49.12       20.38       14.95       
C           47.48       21.57       15.92       
C           46.99       21.68       17.22       
C           52.6        17.07       16.11       
C           51.73       17.61       17.04       
N           52.52       17.81       14.93       
C           51.44       18.71       15.06       
C           51.33       17.46       18.41       
O           51.68       16.72       19.27       
O           51.14       19.33       14.06       
C           49.65       18.64       19.9        
C           53.53       18.16       13.96       
H           54.00642    19.11994    14.1591     
H           53.25       18.02       12.89       
H           54.33       17.39       14.08       
H           48.66       18.95       19.86       
H           50.18048    19.22861    20.64848    
H           49.5        17.57       20.18       
N           50.29       18.46       18.53       
C           50.94       18.59       16.4        
C           49.96       19.02       17.29       
C           55.46       14.58       17.21       
C           55.2        14.39       15.89       
S           54.34       15.7        17.87       
H           53.74       15.17       14.42       
H           55.74       13.71       15.27       
C           54.11       15.15       15.46       
C           53.53       15.98       16.37       
C           58.25       12.66       20.01       
C           58.42       12.65       18.62       
C           57.07       13.21       20.44       
N           58.06       13.04       16.47       
N           59.19       12.33       16.65       
N           59.51       12.17       17.91       
C           59.89       11.49       15.73       
H           56.9        13.31       21.54       
H           55.17       14.21       19.9        
H           59.71838    11.8261     14.70741    
H           60.96       11.55       15.89       
H           59.5026     10.47127    15.74435    
C           56.15       13.88       19.48       
C           57.59       13.28       17.73       
C           56.39       14.01       18.14       
C           61.19       10.86       22.1        
C           60.13       11.08       22.91       
S           60.71       11.44       20.55       
H           58.08       11.88       22.87       
H           60.01       10.8        23.95       
C           59.03       11.76       22.28       
C           59.19       12.07       20.97       
C           64.11       8.05        24.56       
C           63.82       8.75        23.43       
N           63.23       8.45        25.54       
C           62.22       9.37        24.98       
C           64.31       8.94        22.14       
O           65.33       8.66        21.51       
O           61.25       9.83        25.57       
C           63.58       10.14       20.18       
C           63.56       8.56        26.95       
H           63.84722    9.59261     27.14832    
H           64.35       7.94        27.37       
H           62.74       8.2         27.47       
H           63.3        11.19       20.0        
H           63.08785    9.46692     19.47797    
H           64.66       10.19       20.08       
N           63.32       9.79        21.51       
C           62.63       9.46        23.57       
C           62.27       10.01       22.38       
C           67.39       5.92        24.63       
C           66.63       5.53        25.65       
S           66.65       7.18        23.75       
H           64.5        5.88        26.27       
H           66.97       4.78        26.35       
C           65.31       6.11        25.56       
C           65.23       7.13        24.7        
C           71.65       5.29        23.71       
C           71.03       4.54        24.62       
C           70.84       6.0         22.98       
N           69.39       3.86        26.03       
N           70.52       3.14        26.13       
N           71.55       3.65        25.49       
C           70.48       1.85        26.78       
H           71.2        6.65        22.15       
H           68.93       6.9         22.64       
H           69.45703    1.69585     27.12333    
H           70.86       1.08        26.12       
H           71.09311    1.74429     27.675      
C           69.47       6.18        23.27       
C           69.65       4.66        24.99       
C           68.74       5.51        24.3        
C           75.43       6.03        22.83       
C           75.36       4.84        23.53       
S           73.82       6.63        22.76       
H           73.96       3.53        24.5        
H           76.29       4.39        23.77       
C           74.07       4.48        24.0        
C           73.09       5.23        23.46       
C           80.09       6.54        21.52       
C           78.82       7.14        21.74       
N           79.94       5.19        21.83       
C           78.56       4.86        22.06       
C           78.04       8.43        21.66       
O           78.25       9.5         21.23       
O           78.29       3.68        22.34       
C           75.76       9.12        22.27       
C           80.92       4.22        21.6        
H           81.6729     4.26107     22.38712    
H           80.55       3.23        21.67       
H           81.4        4.33        20.6        
H           75.2        8.81        23.19       
H           75.10629    9.34949     21.42852    
H           76.36       10.06       22.46       
N           76.69       8.03        22.0        
C           77.87       6.14        22.05       
C           76.58       6.64        22.23       
C           83.22       8.09        19.79       
C           82.16       8.8         19.4        
S           82.8        6.8         20.85       
H           80.03       8.83        19.79       
H           82.15       9.56        18.6        
C           80.95       8.33        20.02       
C           81.1        7.2         20.73       
C           87.54       8.63        18.87       
C           86.58       9.45        18.29       
C           87.05       7.78        19.79       
N           84.51       10.11       17.76       
N           85.47       10.73       17.07       
N           86.75       10.5        17.41       
C           85.17       11.58       15.9        
H           87.69       7.18        20.32       
H           85.48       6.8         20.83       
H           84.10483    11.80014    15.97101    
H           85.84       12.45       15.87       
H           85.31784    11.09423    14.9355     
C           85.68       7.54        20.09       
C           85.14       9.26        18.5        
C           84.66       8.3         19.44       
C           91.38       7.95        18.24       
C           90.99       8.97        17.49       
S           90.0        7.44        19.08       
H           89.16       10.19       16.94       
H           91.69       9.39        16.71       
C           89.65       9.42        17.62       
C           88.94       8.71        18.52       
C           95.08       6.12        15.83       
C           94.47       6.31        17.09       
N           94.16       6.56        14.86       
C           93.06       7.24        15.43       
C           94.56       5.96        18.49       
O           95.44       5.47        19.22       
O           92.26       7.85        14.76       
C           93.2        6.66        20.49       
C           94.18       6.12        13.47       
H           93.82381    5.10233     13.31008    
H           93.49       6.76        12.86       
H           95.13       6.3         12.98       
H           92.12       6.67        20.7        
H           93.72951    7.46143     21.0052     
H           93.54       5.72        20.81       
N           93.41       6.65        19.05       
C           93.19       6.97        16.83       
C           92.54       7.16        18.06       
C           97.67       3.08        15.74       
C           97.75       3.8         14.6        
S           96.5        3.88        16.76       
H           97.0        5.67        13.69       
H           98.51       3.59        13.86       
C           96.91       4.95        14.52       
C           96.1        5.06        15.6        
C           99.63       -0.61       16.98       
C           99.78       -0.04       15.68       
C           98.82       0.06        17.78       
N           99.63       1.48        14.09       
N           100.34      0.41        13.71       
N           100.41      -0.56       14.57       
C           101.07      0.45        12.45       
H           98.52       -0.32       18.77       
H           97.57       1.84        18.07       
H           100.50226   1.06562     11.7523     
H           102.05      0.85        12.67       
H           101.25005   -0.54718    12.04836    
C           98.28       1.35        17.45       
C           99.26       1.21        15.34       
C           98.4        1.9         16.21       
C           100.24      -4.52       17.47       
C           100.87      -3.82       18.48       
S           99.51       -3.29       16.45       
H           101.05      -1.71       19.22       
H           101.38      -4.38       19.28       
C           100.68      -2.39       18.46       
C           100.1       -1.94       17.32       
C           102.18      -8.92       17.1        
C           101.14      -8.06       16.87       
N           103.11      -8.22       17.83       
C           102.55      -6.96       18.28       
C           99.88       -7.97       16.17       
O           99.21       -8.8        15.51       
O           103.22      -6.26       19.05       
C           98.08       -6.3        16.12       
C           104.19      -8.85       18.64       
H           103.97492   -8.86388    19.70848    
H           105.17      -8.42       18.52       
H           104.36      -9.88       18.31       
H           97.94       -5.41       15.55       
H           97.43744    -6.42851    16.99103    
H           97.75       -6.94       15.3        
N           99.47       -6.62       16.4        
C           101.33      -6.81       17.53       
C           100.39      -5.92       17.14       
C           103.08      -12.36      15.35       
C           102.19      -11.67      14.61       
S           103.24      -11.53      16.86       
H           101.29      -9.69       14.6        
H           101.82      -12.04      13.59       
C           101.8       -10.44      15.18       
C           102.42      -10.1       16.34       
C           105.02      -16.18      14.33       
C           105.57      -15.31      15.37       
C           103.89      -15.74      13.78       
N           105.7       -13.46      16.65       
N           106.69      -14.34      16.89       
N           106.67      -15.52      16.18       
C           107.43      -14.26      18.17       
H           103.37      -16.25      12.97       
H           102.37      -14.38      13.39       
H           106.96683   -13.47402   18.7665     
H           107.39      -15.26      18.6        
H           108.45777   -13.97719   17.94237    
C           103.31      -14.51      14.04       
C           104.9       -14.06      15.72       
C           103.71      -13.67      15.11       
C           106.2       -19.51      12.53       
C           107.05      -19.26      13.52       
S           105.11      -18.25      12.45       
H           107.43      -17.86      15.12       
H           107.8       -19.91      13.84       
C           106.82      -18.11      14.27       
C           105.71      -17.42      13.9        
C           107.65      -23.83      10.96       
C           106.77      -22.76      10.8        
N           108.71      -23.47      11.85       
C           108.42      -22.11      12.25       
C           105.5       -22.39      10.23       
O           104.73      -22.99      9.45        
O           109.23      -21.42      12.9        
C           103.77      -20.67      10.76       
C           110.12      -23.78      11.86       
H           110.54943   -23.3291    10.96536    
H           110.37      -24.84      11.97       
H           110.41      -23.37      12.76       
H           103.67      -19.62      10.64       
H           103.05625   -21.17676   11.40951    
H           103.47      -21.04      9.78        
N           105.14      -21.18      10.85       
C           107.15      -21.73      11.72       
C           106.19      -20.71      11.67       
C           107.64      -27.66      9.88        
C           106.51      -27.07      9.44        
S           108.47      -26.56      10.89       
H           105.63      -24.98      9.52        
H           105.71      -27.54      8.78        
C           106.37      -25.64      9.84        
C           107.48      -25.19      10.53       
C           109.38      -31.54      8.96        
C           108.42      -30.96      8.13        
C           109.72      -30.85      10.12       
N           106.92      -29.34      7.49        
N           106.96      -30.39      6.62        
N           107.91      -31.33      6.91        
C           106.5       -30.18      5.26        
H           110.39      -31.22      10.8        
H           109.42      -29.18      11.43       
H           107.32069   -30.36395   4.56666     
H           106.21      -29.14      5.2         
H           105.58244   -30.71464   5.01435     
C           109.08      -29.69      10.51       
C           107.76      -29.72      8.48        
C           108.17      -29.0       9.65        
H           2.33        40.68       14.47       
H           110.07      -32.26      8.52        
