472

C           4.77        10.98       18.44       
C           3.81        10.07       18.26       
S           6.17        10.39       17.56       
H           3.61        8.02        17.43       
H           2.81        10.26       18.52       
C           4.29        8.89        17.64       
C           5.61        8.74        17.3        
C           2.68        15.16       19.98       
C           3.84        14.46       19.71       
N           1.61        14.43       19.51       
C           2.08        13.14       19.0        
C           5.31        14.48       19.81       
O           6.08        15.34       20.18       
O           1.3         12.32       18.54       
C           7.13        12.84       19.44       
C           0.35        14.86       18.92       
H           -0.47033    14.55058    19.56763    
H           0.18        14.44       17.91       
H           0.38        15.98       18.77       
H           7.52        12.42       18.48       
H           7.31068     12.12452    20.24221    
H           7.69        13.77       19.67       
N           5.72        13.14       19.36       
C           3.53        13.12       19.15       
C           4.67        12.36       18.93       
C           2.82        19.01       20.8        
C           1.69        18.51       21.28       
S           3.85        17.73       20.24       
H           0.68        16.48       21.27       
H           0.91        19.1        21.67       
C           1.56        17.07       21.12       
C           2.66        16.52       20.6        
C           4.4         23.07       19.93       
C           3.06        22.86       20.27       
C           5.11        21.92       20.0        
N           1.21        21.6        20.92       
N           0.99        22.93       20.76       
N           1.97        23.73       20.41       
C           -0.34       23.41       20.51       
H           6.1         21.9        19.71       
H           5.35        19.87       20.26       
H           -1.02995    22.8455     21.13722    
H           -0.24       24.39       20.98       
H           -0.54095    23.34541    19.44063    
C           4.64        20.61       20.31       
C           2.55        21.56       20.63       
C           3.35        20.38       20.7        
C           5.29        26.72       18.51       
C           6.36        26.14       18.98       
S           3.98        25.56       18.66       
H           7.04        24.23       19.91       
H           7.39        26.55       18.92       
C           6.18        24.86       19.56       
C           4.93        24.38       19.54       
C           7.15        30.85       16.8        
C           6.09        30.12       17.16       
N           8.25        30.0        16.79       
C           7.92        28.74       17.43       
C           4.66        30.22       17.34       
O           3.84        31.15       17.23       
O           8.73        27.81       17.45       
C           2.81        28.53       17.86       
C           9.31        29.92       15.75       
H           8.87458     29.48458    14.8506     
H           10.16       29.41       16.12       
H           9.56        31.0        15.5        
H           2.72        27.98       18.78       
H           2.40963     27.94764    17.03014    
H           2.26        29.5        17.95       
N           4.24        28.87       17.78       
C           6.45        28.8        17.62       
C           5.35        28.0        17.93       
C           6.45        34.36       14.99       
C           7.61        34.43       15.74       
S           5.83        32.74       15.28       
H           8.94        33.13       17.0        
H           8.21        35.27       15.77       
C           8.01        33.23       16.47       
C           7.05        32.21       16.32       
C           4.2         36.9        12.35       
C           5.12        37.49       13.22       
C           4.0         35.55       12.52       
N           6.7         37.53       14.93       
N           6.5         38.68       14.32       
N           5.56        38.8        13.43       
C           7.29        39.86       14.64       
H           3.21        35.0        11.99       
H           4.56        33.75       13.47       
H           7.26864     39.98816    15.72223    
H           8.27        39.72       14.26       
H           6.72344     40.68859    14.21508    
C           4.72        34.79       13.48       
C           5.91        36.69       14.19       
C           5.66        35.3        14.24       
C           2.72        39.43       9.63        
C           2.11        38.26       9.53        
S           3.69        39.36       11.02       
H           2.29        36.18       10.31       
H           1.5         38.04       8.64        
C           2.49        37.27       10.44       
C           3.34        37.7        11.41       
C           1.34        41.89       5.76        
C           1.96        41.9        7.0         
N           1.1         40.57       5.48        
C           1.48        39.68       6.48        
C           2.44        42.76       8.05        
O           2.5         43.94       8.22        
O           1.06        38.6        6.51        
C           3.45        42.42       10.27       
C           0.72        40.02       4.18        
H           1.54894     39.99856    3.47254     
H           0.32        39.05       4.37        
H           -0.2        40.51       3.79        
H           4.29        41.83       10.69       
H           2.70297     42.59292    11.04469    
H           3.98        43.32       9.87        
N           2.86        41.84       9.05        
C           2.08        40.55       7.47        
C           2.62        40.57       8.68        
C           0.03        44.73       3.33        
C           1.01        45.22       4.08        
S           -0.24       43.1        3.8         
H           2.22        44.64       5.84        
H           1.29        46.26       4.0         
C           1.55        44.28       5.06        
C           1.12        42.99       4.93        
C           -2.4        46.24       -0.07       
C           -1.67       47.11       0.74        
C           -2.5        44.99       0.48        
N           -0.26       47.74       2.4         
N           -0.57       48.71       1.56        
N           -1.28       48.35       0.48        
C           -0.19       50.12       1.73        
H           -3.08       44.16       -0.03       
H           -1.84       43.53       1.9         
H           0.11642     50.25232    2.76764     
H           0.58        50.41       1.07        
H           -1.01037    50.81416    1.5477      
C           -1.73       44.56       1.59        
C           -0.96       46.66       1.93        
C           -0.9        45.32       2.34        
C           -4.14       47.53       -3.42       
C           -4.2        46.25       -3.36       
S           -3.43       48.15       -2.0        
H           -3.66       44.56       -2.04       
H           -4.66       45.59       -4.14       
C           -3.64       45.68       -2.2        
C           -3.07       46.54       -1.35       
C           -5.68       49.02       -7.82       
C           -5.31       49.29       -6.51       
N           -5.71       47.62       -7.91       
C           -5.41       46.98       -6.65       
C           -5.06       50.41       -5.67       
O           -5.16       51.6        -5.83       
O           -5.28       45.79       -6.48       
C           -4.79       50.73       -3.32       
C           -6.01       46.81       -9.02       
H           -6.90575    46.21048    -8.85778    
H           -5.14       46.27       -9.35       
H           -6.37       47.42       -9.84       
H           -3.98       50.58       -2.61       
H           -5.82159    50.79359    -2.97378    
H           -4.48       51.75       -3.72       
N           -4.69       49.82       -4.45       
C           -5.12       48.11       -5.78       
C           -4.54       48.43       -4.53       
C           -5.65       51.18       -11.12      
C           -4.77       51.78       -10.2       
S           -6.4        49.78       -10.43      
H           -4.3        51.49       -7.98       
H           -4.23       52.69       -10.33      
C           -4.81       51.1        -8.9        
C           -5.54       49.92       -8.93       
C           -6.7        52.24       -15.3       
C           -5.96       53.12       -14.48      
C           -7.04       51.06       -14.73      
N           -4.86       53.72       -12.62      
N           -4.68       54.56       -13.64      
N           -5.4        54.31       -14.75      
C           -4.27       55.95       -13.35      
H           -7.73       50.36       -15.29      
H           -6.89       49.6        -13.09      
H           -3.95045    55.93611    -12.30799   
H           -3.46       56.18       -14.07      
H           -5.10144    56.62074    -13.56659   
C           -6.76       50.68       -13.35      
C           -5.68       52.72       -13.12      
C           -6.1        51.55       -12.48      
C           -7.43       52.31       -19.18      
C           -6.77       53.53       -18.81      
S           -7.43       51.22       -17.76      
H           -6.01       54.51       -17.05      
H           -6.75       54.4        -19.43      
C           -6.46       53.62       -17.48      
C           -6.94       52.56       -16.75      
C           -7.54       51.95       -23.94      
C           -7.87       51.47       -22.69      
N           -6.99       53.16       -23.75      
C           -6.87       53.52       -22.38      
C           -8.37       50.29       -22.06      
O           -8.88       49.23       -22.47      
O           -6.24       54.48       -22.07      
C           -9.23       49.81       -19.86      
C           -6.56       53.96       -24.84      
H           -7.125      54.88771    -24.93068   
H           -6.52       53.37       -25.72      
H           -5.55       54.33       -24.7       
H           -9.57       50.29       -18.96      
H           -8.77803    48.84774    -19.61943   
H           -10.18      49.75       -20.42      
N           -8.38       50.61       -20.69      
C           -7.46       52.4        -21.67      
C           -7.74       51.84       -20.47      
C           -8.15       49.41       -26.87      
C           -8.11       50.7        -27.41      
S           -7.64       49.41       -25.23      
H           -8.15       52.67       -26.59      
H           -8.16       50.9        -28.47      
C           -7.99       51.64       -26.39      
C           -7.86       51.17       -25.13      
C           -8.35       45.28       -28.36      
C           -8.37       46.37       -29.25      
C           -8.62       45.7        -27.16      
N           -8.38       48.51       -29.93      
N           -8.36       47.63       -30.98      
N           -8.25       46.34       -30.67      
C           -8.63       47.98       -32.39      
H           -8.84       44.96       -26.45      
H           -8.7        47.08       -25.62      
H           -8.7547     49.03991    -32.61168   
H           -8.05       47.53       -33.13      
H           -9.49324    47.39047    -32.6988    
C           -8.59       47.01       -26.66      
C           -8.35       47.7        -28.84      
C           -8.32       48.1        -27.48      
C           -8.44       41.38       -28.53      
C           -8.42       41.85       -29.77      
S           -8.46       42.67       -27.35      
H           -8.25       43.83       -30.81      
H           -8.44       41.22       -30.61      
C           -8.4        43.23       -29.89      
C           -8.32       43.83       -28.68      
C           -9.98       36.9        -29.18      
C           -9.28       37.81       -28.39      
N           -9.96       37.46       -30.42      
C           -9.4        38.74       -30.42      
C           -8.74       37.91       -27.01      
O           -8.6        37.0        -26.2       
O           -9.55       39.41       -31.41      
C           -8.59       39.85       -25.52      
C           -10.24      36.81       -31.64      
H           -9.33137    36.58284    -32.19757   
H           -10.82      37.49       -32.26      
H           -10.86      35.88       -31.63      
H           -9.32       40.65       -25.49      
H           -7.67781    40.1689     -25.0157    
H           -9.13       39.11       -25.0       
N           -8.37       39.33       -26.91      
C           -9.04       39.03       -29.07      
C           -8.6        40.01       -28.17      
C           -10.73      33.23       -28.04      
C           -11.67      33.64       -28.9       
S           -9.6        34.53       -27.8       
H           -12.34      35.5        -29.96      
H           -12.5       32.95       -29.17      
C           -11.57      35.03       -29.32      
C           -10.5       35.62       -28.79      
C           -9.86       29.33       -26.15      
C           -11.13      29.8        -26.42      
C           -8.89       30.07       -26.88      
N           -12.81      31.23       -27.09      
N           -13.25      30.09       -26.54      
N           -12.34      29.25       -26.13      
C           -14.64      29.98       -25.98      
H           -7.88       29.74       -27.02      
H           -8.42       31.95       -27.93      
H           -15.27144   30.74059    -26.43923   
H           -14.9       28.94       -26.14      
H           -14.66737   30.11684    -24.89897   
C           -9.23       31.38       -27.44      
C           -11.48      31.06       -26.99      
C           -10.5       31.9        -27.47      
C           -8.32       26.01       -24.31      
C           -9.67       25.89       -24.62      
S           -7.91       27.71       -24.75      
H           -11.26      26.92       -25.62      
H           -10.2       24.98       -24.36      
C           -10.27      26.99       -25.22      
C           -9.48       28.08       -25.47      
C           -7.32       22.8        -20.88      
C           -6.88       23.63       -21.85      
N           -8.65       22.76       -21.0       
C           -9.16       23.67       -22.0       
C           -5.63       24.19       -22.38      
O           -4.43       24.09       -22.1       
O           -10.3       23.6        -22.38      
C           -5.3        25.5        -24.51      
C           -9.57       21.65       -20.68      
H           -9.44425    20.85361    -21.41352   
H           -9.42       21.23       -19.69      
H           -10.59      22.09       -20.72      
H           -5.49       26.55       -24.81      
H           -5.54015    24.80867    -25.31777   
H           -4.31       25.41       -24.08      
N           -6.11       25.15       -23.37      
C           -8.0        24.32       -22.47      
C           -7.49       25.24       -23.39      
C           -5.51       20.66       -18.0       
C           -4.56       21.01       -18.93      
S           -7.02       21.31       -18.5       
H           -4.57       22.08       -20.81      
H           -3.51       20.65       -18.86      
C           -5.17       21.75       -20.01      
C           -6.49       21.93       -20.03      
C           -4.67       19.34       -13.85      
C           -6.04       19.4        -14.39      
C           -3.71       19.76       -14.78      
N           -7.65       20.01       -15.76      
N           -8.12       19.58       -14.67      
N           -7.24       19.15       -13.82      
C           -9.54       19.39       -14.39      
H           -2.65       19.69       -14.48      
H           -3.07       20.26       -16.77      
H           -10.09057   20.25714    -14.75475   
H           -9.83       18.53       -14.94      
H           -9.66974    19.19881    -13.32477   
C           -3.99       20.14       -16.11      
C           -6.29       20.0        -15.66      
C           -5.24       20.25       -16.63      
C           -3.72       16.91       -10.93      
C           -3.03       18.07       -10.75      
S           -4.9        17.19       -12.21      
H           -2.73       19.9        -11.98      
H           -2.19       18.16       -10.05      
C           -3.27       18.99       -11.77      
C           -4.31       18.72       -12.58      
C           -5.05       12.59       -9.34       
C           -4.39       13.77       -9.12       
N           -5.55       12.74       -10.66      
C           -4.91       13.87       -11.33      
C           -3.63       14.49       -8.11       
O           -3.28       14.15       -7.02       
O           -5.02       14.13       -12.48      
C           -2.7        16.74       -7.85       
C           -6.39       11.88       -11.35      
H           -5.68206    11.18697    -11.80457   
H           -7.06       11.39       -10.65      
H           -6.97       12.38       -12.12      
H           -3.12       17.75       -8.15       
H           -1.61039    16.7683     -7.84292    
H           -3.01       16.47       -6.83       
N           -3.24       15.74       -8.7        
C           -4.36       14.63       -10.27      
C           -3.75       15.84       -9.97       
C           -7.21       11.23       -6.47       
C           -7.12       10.26       -7.43       
S           -6.24       12.6        -6.95       
H           -6.05       9.92        -9.35       
H           -7.65       9.34        -7.33       
C           -6.26       10.57       -8.5        
C           -5.64       11.79       -8.3        
C           -9.97       12.25       -3.41       
C           -10.1       11.0        -4.13       
C           -8.72       12.81       -3.48       
N           -9.57       9.51        -5.73       
N           -10.73      9.26        -5.1        
N           -11.11      10.15       -4.12       
C           -11.64      8.28        -5.65       
H           -8.46       13.68       -2.88       
H           -6.84       12.98       -4.49       
H           -11.16387   7.61199     -6.36775    
H           -11.99      7.64        -4.85       
H           -12.51757   8.81356     -6.01507    
C           -7.81       12.4        -4.42       
C           -9.17       10.59       -5.12       
C           -7.99       11.35       -5.32       
C           -12.3       14.37       -0.98       
C           -12.92      13.12       -1.14       
S           -10.83      14.37       -1.83       
H           -12.72      11.33       -2.51       
H           -13.86      12.98       -0.81       
C           -12.29      12.3        -2.12       
C           -11.07      12.79       -2.55       
C           -15.74      16.79       1.2         
C           -14.43      16.79       0.73        
N           -16.13      15.5        1.33        
C           -15.27      14.73       0.49        
C           -13.4       17.7        0.35        
O           -13.29      18.87       0.41        
O           -15.65      13.64       0.22        
C           -11.06      17.37       -0.33       
C           -16.55      14.92       2.57        
H           -15.67692   14.78938    3.20935     
H           -17.04      13.98       2.38        
H           -17.34      15.5        3.01        
H           -10.4       16.84       -0.98       
H           -10.43925   17.28438    0.56188     
H           -11.15      18.3        -0.84       
N           -12.38      16.81       -0.15       
C           -14.14      15.54       0.23        
C           -12.9       15.52       -0.32       
C           -18.47      19.64       1.49        
C           -17.23      20.21       1.46        
S           -18.29      17.92       1.44        
H           -15.17      19.66       1.35        
H           -17.15      21.26       1.42        
C           -16.19      19.28       1.39        
C           -16.53      17.95       1.48        
C           -22.65      21.05       1.69        
C           -21.58      21.81       2.23        
C           -22.29      19.85       1.18        
N           -19.41      22.16       2.76        
N           -20.18      23.18       3.09        
N           -21.51      23.04       2.76        
C           -19.6       24.4        3.69        
H           -23.01      19.04       0.94        
H           -20.72      18.46       0.5         
H           -18.57429   24.51241    3.33873     
H           -20.16      25.24       3.31        
H           -19.63718   24.24386    4.76812     
C           -20.91      19.35       1.09        
C           -20.25      21.3        2.21        
C           -19.88      20.1        1.59        
C           -26.62      21.39       1.28        
C           -26.1       22.32       2.18        
S           -25.29      20.5        0.61        
H           -24.25      22.85       3.25        
H           -26.74      22.93       2.84        
C           -24.71      22.23       2.45        
C           -24.1       21.32       1.68        
C           -31.38      21.7        1.87        
C           -30.31      21.05       1.22        
N           -30.96      22.74       2.64        
C           -29.52      22.89       2.43        
C           -29.98      19.92       0.43        
O           -30.67      19.1        -0.22       
O           -28.97      23.85       2.94        
C           -27.88      18.88       -0.35       
C           -31.72      23.81       3.27        
H           -31.81538   24.61708    2.54363     
H           -31.18      24.16       4.16        
H           -32.68      23.5        3.54        
H           -26.94      18.65       0.05        
H           -27.7228    18.98936    -1.42305    
H           -28.58      18.11       -0.19       
N           -28.54      20.0        0.32        
C           -29.09      21.74       1.54        
C           -28.0       21.11       1.01        
C           -35.0       20.54       2.48        
C           -34.66      20.14       1.15        
S           -33.65      21.13       3.31        
H           -32.84      20.33       -0.08       
H           -35.41      19.71       0.4         
C           -33.31      20.49       0.85        
C           -32.72      21.19       1.87        
C           -38.89      20.59       4.7         
C           -38.89      20.44       3.26        
C           -37.64      20.73       5.21        
N           -38.02      20.1        1.24        
N           -39.35      20.0        1.29        
N           -39.96      20.26       2.46        
C           -40.16      19.39       0.23        
H           -37.51      21.12       6.22        
H           -35.58      21.02       5.01        
H           -40.12552   18.30057    0.2369      
H           -39.89      19.79       -0.73       
H           -41.19861   19.7058     0.32825     
C           -36.46      20.71       4.44        
C           -37.67      20.37       2.52        
C           -36.33      20.56       3.12        
H           6.1         7.79        17.43       
H           -39.69      20.08       5.26        
