472

C           72.75       24.03       30.88       
C           73.98       24.05       30.26       
S           71.76       25.27       30.29       
H           74.88       25.19       28.64       
H           74.73       23.28       30.32       
C           74.06       25.16       29.32       
C           73.02       26.0        29.31       
C           72.34       19.56       32.57       
C           71.88       20.85       32.55       
N           73.37       19.43       31.64       
C           73.61       20.75       31.05       
C           70.93       21.74       33.13       
O           70.12       21.68       33.97       
O           74.45       20.88       30.13       
C           71.26       24.2        33.57       
C           74.29       18.29       31.57       
H           75.22588    18.61194    32.02671    
H           74.53       17.91       30.5        
H           73.83       17.4        32.07       
H           70.83       25.05       33.05       
H           72.25896    24.45149    33.92627    
H           70.59       24.01       34.44       
N           71.32       23.06       32.64       
C           72.67       21.63       31.66       
C           72.19       22.94       31.62       
C           71.15       16.61       34.83       
C           70.04       17.33       34.52       
S           72.47       17.21       34.08       
H           69.65       19.23       33.33       
H           69.09       17.12       34.97       
C           70.35       18.53       33.74       
C           71.64       18.5        33.26       
C           71.82       13.33       37.79       
C           70.64       14.12       37.79       
C           72.73       13.7        36.78       
N           69.17       15.8        37.08       
N           68.7        15.1        38.14       
N           69.55       14.22       38.64       
C           67.71       15.67       39.01       
H           73.67       13.14       36.73       
H           73.18       14.79       35.02       
H           66.86225    15.88013    38.35788    
H           67.32       14.85       39.65       
H           67.99223    16.54492    39.59563    
C           72.45       14.74       35.8        
C           70.33       15.19       36.84       
C           71.3        15.5        35.8        
C           71.91       10.57       40.64       
C           72.93       10.3        39.71       
S           70.98       11.93       40.12       
H           73.86       11.24       37.97       
H           73.67       9.49        39.72       
C           73.03       11.33       38.73       
C           72.04       12.23       38.75       
C           72.45       6.99        44.04       
C           71.82       8.11        43.52       
N           73.49       6.82        43.14       
C           73.47       7.68        42.05       
C           70.71       9.0         43.87       
O           69.92       8.97        44.73       
O           74.25       7.62        41.09       
C           69.81       11.11       42.96       
C           74.77       6.15        43.46       
H           75.58787    6.8683      43.5169     
H           75.05       5.49        42.67       
H           74.71       5.66        44.4        
H           69.31       11.27       42.01       
H           70.40829    11.8957     43.42133    
H           69.02       10.76       43.64       
N           70.61       9.94        42.73       
C           72.37       8.64        42.3        
C           71.67       9.73        41.83       
C           71.64       4.36        46.87       
C           71.29       5.59        47.24       
S           72.45       4.56        45.38       
H           71.18       7.69        46.49       
H           70.65       5.72        48.09       
C           71.49       6.67        46.36       
C           72.25       6.28        45.28       
C           71.26       0.48        48.91       
C           71.79       0.61        47.61       
C           70.91       1.7         49.52       
N           72.4        1.6         45.74       
N           72.63       0.27        45.8        
N           72.22       -0.42       46.86       
C           73.05       -0.43       44.6        
H           70.59       1.66        50.54       
H           70.76       3.79        49.38       
H           73.26638    0.2331      43.7624     
H           73.97       -1.01       44.76       
H           72.28127    -1.12551    44.26322    
C           71.0        2.96        48.77       
C           71.89       1.87        46.93       
C           71.46       3.07        47.5        
C           70.39       -2.65       51.28       
C           70.13       -2.94       50.01       
S           71.03       -1.01       51.33       
H           70.3        -2.05       47.95       
H           69.6        -3.95       49.79       
C           70.55       -1.99       49.0        
C           70.96       -0.83       49.59       
C           70.15       -3.66       55.84       
C           69.64       -3.82       54.58       
N           71.2        -2.79       55.8        
C           71.38       -2.32       54.44       
C           68.61       -4.55       53.83       
O           67.59       -5.05       54.24       
O           72.25       -1.5        54.16       
C           67.48       -4.06       51.72       
C           72.32       -2.4        56.73       
H           72.01873    -1.53822    57.32554    
H           72.63       -3.2        57.42       
H           73.21       -2.07       56.28       
H           67.72       -4.2        50.68       
H           66.78276    -3.23338    51.85657    
H           67.05       -4.97       52.06       
N           68.68       -3.95       52.51       
C           70.38       -3.04       53.61       
C           69.87       -3.32       52.34       
C           68.99       -6.23       58.44       
C           69.65       -5.28       59.1        
S           68.82       -5.86       56.8        
H           70.72       -3.47       58.56       
H           69.86       -5.47       60.1        
C           70.28       -4.37       58.24       
C           69.87       -4.51       56.95       
C           66.67       -9.73       59.79       
C           67.15       -8.76       60.65       
C           66.98       -9.42       58.49       
N           68.28       -6.97       61.42       
N           67.69       -7.63       62.34       
N           66.99       -8.7        61.99       
C           67.96       -7.4        63.75       
H           66.69       -10.08      57.65       
H           67.94       -8.2        56.94       
H           68.72615    -6.62676    63.80675    
H           67.04       -7.08       64.2        
H           68.24758    -8.29782    64.29711    
C           67.71       -8.26       58.03       
C           67.96       -7.69       60.31       
C           68.21       -7.39       58.96       
C           64.1        -12.78      59.86       
C           64.53       -12.45      61.11       
S           65.12       -11.8       58.84       
H           65.71       -11.09      62.25       
H           64.13       -12.93      61.99       
C           65.55       -11.54      61.29       
C           65.91       -10.95      60.1        
C           60.59       -16.12      60.57       
C           61.4        -15.42      59.69       
N           60.93       -15.73      61.86       
C           61.95       -14.76      61.79       
C           61.64       -15.21      58.27       
O           61.2        -15.7       57.25       
O           62.33       -14.23      62.81       
C           63.58       -14.35      57.11       
C           60.54       -16.38      63.15       
H           61.34136    -17.01227   63.5323     
H           59.69       -16.97      63.2        
H           60.4        -15.61      63.91       
H           64.61       -14.32      57.38       
H           63.30826    -13.51332   56.4664     
H           63.49       -15.24      56.55       
N           62.8        -14.39      58.27       
C           62.26       -14.57      60.39       
C           63.07       -13.82      59.49       
C           58.19       -19.22      59.94       
C           59.01       -19.08      58.81       
S           58.56       -18.02      61.1        
H           60.66       -17.77      58.24       
H           58.98       -19.68      57.98       
C           59.9        -17.98      58.98       
C           59.82       -17.3       60.18       
C           55.15       -22.1       60.94       
C           56.08       -22.31      59.95       
C           55.3        -20.88      61.63       
N           57.91       -22.0       58.56       
N           57.39       -23.2       58.52       
N           56.29       -23.45      59.31       
C           57.86       -24.16      57.53       
H           54.58       -20.61      62.44       
H           56.18       -18.94      61.67       
H           58.77481    -23.74798   57.10402    
H           58.0        -25.08      58.05       
H           57.09438    -24.23024   56.75735    
C           56.14       -19.88      61.13       
C           57.08       -21.43      59.51       
C           57.14       -20.21      60.17       
C           53.24       -25.11      62.5        
C           52.38       -24.01      62.47       
S           54.79       -24.62      61.84       
H           52.4        -21.92      61.93       
H           51.39       -23.94      62.96       
C           52.95       -22.8       61.94       
C           54.15       -23.02      61.38       
C           51.27       -28.12      65.76       
C           52.18       -27.91      64.77       
N           50.5        -26.91      65.9        
C           51.04       -26.0       64.99       
C           53.17       -28.59      63.87       
O           53.51       -29.75      63.72       
O           50.55       -24.91      64.96       
C           54.17       -27.89      61.75       
C           49.09       -26.72      66.15       
H           48.54688    -26.81748   65.20999    
H           48.9        -25.78      66.72       
H           48.78       -27.38      66.91       
H           55.02       -27.27      61.56       
H           53.48993    -27.96712   60.90167    
H           54.53       -28.9       61.93       
N           53.57       -27.51      62.96       
C           52.1        -26.56      64.28       
C           53.04       -26.27      63.34       
C           50.04       -31.14      67.92       
C           50.99       -31.58      67.01       
S           50.07       -29.42      67.89       
H           52.49       -30.67      65.68       
H           51.34       -32.59      66.95       
C           51.6        -30.5       66.27       
C           50.98       -29.35      66.41       
C           47.64       -33.2       70.92       
C           48.74       -33.89      70.27       
C           47.42       -31.89      70.52       
N           50.48       -34.06      68.8        
N           50.28       -35.13      69.56       
N           49.16       -35.17      70.38       
C           51.25       -36.2       69.63       
H           46.59       -31.29      70.92       
H           48.07       -30.22      69.25       
H           52.19885    -35.90075   69.18477    
H           51.36       -36.41      70.72       
H           50.79686    -37.12044   69.26182    
C           48.27       -31.25      69.61       
C           49.56       -33.18      69.3        
C           49.29       -31.82      68.93       
C           44.77       -34.18      73.39       
C           45.58       -35.24      73.24       
S           45.58       -32.8       72.67       
H           47.28       -35.86      72.08       
H           45.37       -36.13      73.78       
C           46.68       -35.07      72.4        
C           46.81       -33.82      71.91       
C           41.19       -35.63      76.34       
C           41.82       -34.63      75.56       
N           42.16       -36.59      76.58       
C           43.3        -36.34      75.77       
C           41.48       -33.47      74.81       
O           40.39       -32.96      74.75       
O           44.18       -37.18      75.71       
C           42.36       -32.23      72.85       
C           42.38       -37.29      77.84       
H           43.05008    -36.71066   78.47518    
H           42.8        -38.34      77.78       
H           41.41       -37.4       78.33       
H           42.92       -32.53      71.92       
H           42.67986    -31.21953   73.10444    
H           41.31       -32.22      72.74       
N           42.57       -33.17      73.95       
C           43.08       -35.03      75.09       
C           43.63       -34.05      74.25       
C           37.51       -35.74      77.83       
C           37.95       -34.4       77.62       
S           38.91       -36.74      77.48       
H           39.71       -33.3       77.04       
H           37.27       -33.59      77.75       
C           39.28       -34.27      77.27       
C           39.95       -35.48      77.07       
C           33.42       -37.24      78.26       
C           33.8        -36.1       77.52       
C           34.54       -37.89      78.8        
N           35.09       -34.4       76.64       
N           33.83       -34.33      76.24       
N           33.01       -35.17      76.85       
C           33.33       -33.17      75.47       
H           34.4        -38.88      79.17       
H           36.66       -38.11      78.96       
H           34.07945    -32.38486   75.56993    
H           33.18       -33.48      74.41       
H           32.35301    -32.83944   75.8226     
C           35.88       -37.39      78.65       
C           35.09       -35.53      77.4        
C           36.21       -36.23      77.96       
C           30.02       -39.11      79.09       
C           29.73       -37.83      78.63       
S           31.7        -39.32      79.12       
H           30.8        -36.05      77.91       
H           28.8        -37.35      78.73       
C           30.84       -37.0       78.35       
C           32.03       -37.66      78.54       
C           25.71       -41.16      78.55       
C           27.02       -41.2       79.06       
N           25.67       -40.05      77.63       
C           26.91       -39.3       77.79       
C           27.91       -41.95      79.89       
O           27.78       -43.02      80.4        
O           27.04       -38.17      77.24       
C           30.18       -41.63      80.92       
C           24.77       -39.65      76.53       
H           23.97937    -38.99719   76.89993    
H           25.39       -39.06      75.85       
H           24.44       -40.52      76.01       
H           30.63       -40.77      81.34       
H           30.88446    -42.36968   80.53959    
H           29.48       -42.09      81.69       
N           29.16       -41.26      79.91       
C           27.77       -40.02      78.71       
C           29.03       -40.12      79.18       
C           22.36       -43.21      78.87       
C           23.3        -43.8       79.69       
S           23.05       -41.8       78.22       
H           25.39       -43.56      80.3        
H           23.08       -44.66      80.33       
C           24.58       -43.15      79.68       
C           24.62       -42.05      78.83       
C           18.35       -44.95      77.83       
C           18.91       -43.86      77.13       
C           19.18       -45.38      78.84       
N           20.33       -42.15      76.69       
N           19.22       -42.02      75.98       
N           18.34       -43.03      76.17       
C           18.72       -40.83      75.36       
H           18.84       -46.15      79.42       
H           20.95       -45.37      79.98       
H           19.55652    -40.1329    75.3112     
H           18.35       -41.06      74.33       
H           17.93597    -40.42346   75.99884    
C           20.45       -44.84      79.2        
C           20.22       -43.22      77.49       
C           21.05       -43.81      78.5        
C           14.79       -46.64      77.83       
C           15.16       -46.24      76.61       
S           16.12       -46.19      78.86       
H           16.77       -45.14      75.55       
H           14.53       -46.35      75.76       
C           16.4        -45.62      76.44       
C           17.1        -45.59      77.54       
C           10.23       -47.7       76.95       
C           11.23       -47.7       77.92       
N           10.62       -46.81      75.98       
C           11.91       -46.32      76.19       
C           11.63       -48.15      79.21       
O           11.06       -48.66      80.13       
O           12.38       -45.41      75.5        
C           13.99       -48.13      80.43       
C           9.93        -46.39      74.77       
H           10.42242    -46.84725   73.91178    
H           8.92        -46.56      74.81       
H           9.99        -45.3       74.69       
H           14.61       -47.35      80.7        
H           14.54859    -49.05383   80.27961    
H           13.24       -48.36      81.22       
N           13.1        -47.81      79.3        
C           12.37       -46.98      77.43       
C           13.48       -47.13      78.21       
C           7.36        -50.27      76.21       
C           7.72        -50.27      77.53       
S           8.0         -48.79      75.56       
H           9.16        -49.29      78.75       
H           7.49        -51.09      78.22       
C           8.66        -49.33      77.85       
C           9.03        -48.44      76.88       
C           6.65        -53.11      72.9        
C           6.7         -53.56      74.2        
C           6.42        -51.78      72.84       
N           7.16        -53.41      76.47       
N           6.84        -54.63      75.98       
N           6.68        -54.8       74.67       
C           7.09        -55.73      76.79       
H           6.2         -51.29      71.95       
H           6.33        -49.87      73.69       
H           7.24601     -55.41797   77.82267    
H           6.22        -56.38      76.67       
H           7.90552     -56.31457   76.3642     
C           6.46        -50.89      73.94       
C           6.87        -52.66      75.36       
C           6.91        -51.23      75.21       
C           7.31        -54.45      69.23       
C           6.94        -55.52      70.03       
S           7.51        -53.06      70.31       
H           6.37        -55.9       72.21       
H           6.8         -56.51      69.62       
C           6.68        -55.23      71.44       
C           6.82        -53.9       71.69       
C           8.08        -52.62      64.96       
C           8.22        -53.73      65.78       
N           7.74        -51.52      65.75       
C           7.45        -52.0       67.07       
C           8.55        -55.17      65.81       
O           8.93        -55.95      64.93       
O           6.94        -51.25      67.91       
C           8.81        -56.82      67.49       
C           8.42        -50.19      65.72       
H           9.35932     -50.27979   66.26563    
H           7.73        -49.46      66.14       
H           8.79        -49.95      64.71       
H           8.03        -57.48      67.81       
H           9.54784     -56.75794   68.2899     
H           9.32        -57.27      66.63       
N           8.29        -55.55      67.15       
C           7.76        -53.41      67.07       
C           7.72        -54.49      67.9        
C           7.78        -51.95      61.1        
C           8.08        -53.27      61.26       
S           7.58        -51.21      62.64       
H           8.69        -54.55      62.98       
H           8.23        -53.9       60.4        
C           8.23        -53.61      62.65       
C           8.14        -52.57      63.51       
C           6.54        -49.58      57.64       
C           6.76        -50.95      57.55       
C           6.92        -49.03      58.87       
N           7.63        -53.01      58.12       
N           7.05        -52.96      56.9        
N           6.62        -51.81      56.47       
C           7.37        -54.02      55.87       
H           6.8         -47.94      59.02       
H           7.39        -49.35      60.94       
H           6.87941     -54.95211   56.15034    
H           7.02        -53.81      54.9        
H           8.44385     -54.18576   55.78352    
C           7.3         -49.84      59.96       
C           7.28        -51.73      58.6        
C           7.45        -51.22      59.91       
C           5.87        -46.75      55.03       
C           5.44        -47.94      54.47       
S           6.43        -47.12      56.62       
H           5.41        -50.07      55.08       
H           4.93        -48.06      53.56       
C           5.74        -49.09      55.25       
C           6.19        -48.79      56.5        
C           3.44        -43.44      52.41       
C           4.35        -43.76      53.43       
N           3.04        -44.64      51.89       
C           3.66        -45.68      52.67       
C           5.28        -43.16      54.46       
O           5.53        -42.04      54.68       
O           3.21        -46.87      52.52       
C           7.21        -44.03      55.84       
C           2.48        -45.04      50.63       
H           3.30629     -45.35511   49.99278    
H           1.87        -44.2       50.2        
H           1.72        -45.85      50.8        
H           7.88        -44.96      55.7        
H           7.05717     -43.72435   56.87505    
H           7.66        -43.17      55.3        
N           5.98        -44.27      55.15       
C           4.53        -45.15      53.61       
C           5.5         -45.44      54.61       
C           2.12        -39.89      51.11       
C           2.81        -39.8       52.29       
S           2.21        -41.57      50.52       
H           3.71        -41.17      53.7        
H           3.08        -38.89      52.86       
C           3.23        -41.09      52.74       
C           2.99        -42.13      51.99       
C           -0.15       -36.65      49.2        
C           1.14        -36.41      49.78       
C           -0.43       -38.04      49.2        
N           3.01        -37.02      50.99       
N           3.02        -35.73      50.57       
N           1.94        -35.29      49.91       
C           3.77        -34.62      51.24       
H           -1.34       -38.42      48.78       
H           -0.08       -40.11      49.71       
H           4.7888      -34.61283   50.85257    
H           3.84        -34.7       52.31       
H           3.24808     -33.66911   51.13276    
C           0.39        -39.06      49.66       
C           1.9         -37.48      50.43       
C           1.55        -38.86      50.26       
H           73.12       27.01       29.05       
H           -0.93       -35.99      49.41       
