472

C           45.14       90.06       72.46       
C           44.43       90.04       73.65       
S           44.25       90.96       71.32       
H           42.59       90.85       74.54       
H           44.74       89.64       74.59       
C           43.24       90.8        73.61       
C           43.0        91.46       72.41       
C           49.37       88.16       73.81       
C           48.56       88.52       72.78       
N           48.75       88.41       75.0        
C           47.5        89.02       74.77       
C           48.49       88.53       71.34       
O           49.15       88.11       70.42       
O           46.88       89.48       75.69       
C           46.93       89.56       69.77       
C           48.98       87.74       76.28       
H           48.39928    86.81768    76.26634    
H           48.77       88.36       77.17       
H           50.01       87.34       76.35       
H           46.44       90.5        69.76       
H           46.33408    88.88093    69.16022    
H           47.85       89.72       69.33       
N           47.12       89.09       71.13       
C           47.33       89.05       73.29       
C           46.48       89.45       72.33       
C           53.16       87.06       73.8        
C           52.57       86.61       72.71       
S           51.97       87.71       74.85       
H           50.6        86.77       71.71       
H           53.04       86.04       71.91       
C           51.25       86.95       72.59       
C           50.72       87.54       73.7        
C           57.32       87.13       75.09       
C           56.96       86.8        73.76       
C           56.27       87.27       75.94       
N           55.65       86.73       71.9        
N           56.88       86.69       71.61       
N           57.76       86.69       72.66       
C           57.28       86.82       70.15       
H           56.43       87.55       76.98       
H           54.21       87.25       76.38       
H           56.48961    86.50107    69.47054    
H           57.63       87.81       69.91       
H           58.1376     86.17502    69.95863    
C           54.91       87.11       75.6        
C           55.63       86.75       73.32       
C           54.57       86.99       74.26       
C           60.77       87.61       77.02       
C           61.12       86.89       75.87       
S           59.07       87.85       77.19       
H           60.06       86.14       74.06       
H           62.1        86.58       75.6        
C           59.97       86.67       75.03       
C           58.78       87.15       75.58       
C           64.98       87.09       79.32       
C           63.83       87.78       79.2        
N           65.08       86.29       78.24       
C           63.77       86.06       77.61       
C           63.07       88.92       79.66       
O           63.27       89.86       80.48       
O           63.54       85.25       76.81       
C           60.76       89.68       79.44       
C           66.27       85.56       77.81       
H           66.07716    84.52903    78.10668    
H           67.17       85.88       78.32       
H           66.49       85.74       76.71       
H           59.87       89.09       79.64       
H           60.43057    90.48924    78.78831    
H           61.13       90.02       80.45       
N           61.83       88.83       78.94       
C           62.98       87.21       78.14       
C           61.79       87.82       78.03       
C           67.08       88.13       82.55       
C           67.11       86.77       82.32       
S           66.15       88.83       81.25       
H           66.32       85.24       80.95       
H           67.69       86.11       82.99       
C           66.38       86.33       81.2        
C           65.84       87.32       80.45       
C           69.07       90.83       85.41       
C           69.43       89.45       85.32       
C           68.13       91.23       84.53       
N           69.47       87.36       84.4        
N           70.33       87.57       85.35       
N           70.4        88.78       85.92       
C           71.3        86.53       85.78       
H           67.88       92.23       84.56       
H           66.54       90.72       83.27       
H           71.00436    85.57098    85.35457    
H           72.32       86.8        85.57       
H           71.32151    86.54434    86.86969    
C           67.46       90.34       83.66       
C           68.83       88.6        84.31       
C           67.81       89.02       83.45       
C           70.14       94.11       87.43       
C           70.48       92.99       88.16       
S           69.58       93.53       85.92       
H           70.48       90.75       87.97       
H           70.88       92.94       89.2        
C           70.28       91.68       87.5        
C           69.58       91.82       86.33       
C           72.18       98.0        89.57       
C           71.41       97.44       88.57       
N           72.48       96.91       90.41       
C           71.86       95.69       90.02       
C           70.69       97.77       87.36       
O           70.54       98.87       86.76       
O           72.09       94.7        90.61       
C           69.06       96.63       85.89       
C           73.54       96.8        91.41       
H           73.20879    97.10177    92.40364    
H           74.04       95.88       91.39       
H           74.32       97.48       91.27       
H           68.25       95.92       86.09       
H           69.48064    96.68428    84.8859     
H           68.56       97.6        86.0        
N           70.11       96.56       86.9        
C           71.22       96.05       88.77       
C           70.48       95.52       87.71       
C           73.64       101.59      90.06       
C           73.21       101.38      88.77       
S           73.32       100.17      90.97       
H           72.63       99.69       87.44       
H           73.29       102.12      88.0        
C           72.82       100.1       88.48       
C           72.76       99.31       89.57       
C           74.7        105.38      92.28       
C           73.87       105.32      91.05       
C           75.16       104.09      92.61       
N           72.86       104.33      89.3        
N           72.83       105.67      89.25       
N           73.38       106.29      90.32       
C           72.48       106.26      87.96       
H           75.91       104.06      93.46       
H           75.36       101.9       92.19       
H           72.3124     105.50943   87.18757    
H           71.55       106.81      88.16       
H           73.22235    106.98848   87.63392    
C           74.95       102.86      91.84       
C           73.69       104.1       90.37       
C           74.09       102.81      90.77       
C           74.93       108.84      94.51       
C           76.13       108.2       94.52       
S           73.75       107.76      93.74       
H           77.08       106.59      93.51       
H           76.99       108.64      94.91       
C           76.11       107.0       93.78       
C           74.94       106.63      93.14       
C           75.88       112.13      97.8        
C           75.08       111.77      96.78       
N           76.91       111.26      97.93       
C           76.68       110.13      97.11       
C           73.94       112.14      95.94       
O           73.23       113.08      95.91       
O           77.4        109.21      97.1        
C           72.94       111.12      93.97       
C           78.33       111.41      98.12       
H           78.81824    111.56129   97.15728    
H           78.71       110.58      98.73       
H           78.46       112.31      98.7        
H           72.54       110.14      93.79       
H           73.4371     111.57387   93.11268    
H           72.09       111.7       94.29       
N           73.77       111.02      95.08       
C           75.53       110.5       96.26       
C           74.71       110.01      95.31       
C           74.15       114.49      100.31      
C           75.44       114.47      100.68      
S           74.03       113.85      98.74       
H           77.4        113.53      100.01      
H           75.82       114.97      101.6       
C           76.29       113.66      99.81       
C           75.59       113.17      98.71       
C           70.8        116.9       101.85      
C           70.61       115.71      101.09      
C           72.17       117.23      102.0       
N           71.24       113.88      99.88       
N           69.93       114.14      99.95       
N           69.47       115.17      100.56      
C           68.99       113.28      99.21       
H           72.46       118.14      102.59      
H           74.28       116.77      101.65      
H           69.42188    112.9614    98.26128    
H           68.7        112.45      99.81       
H           68.08492    113.84932   98.99833    
C           73.24       116.46      101.51      
C           71.7        114.92      100.61      
C           73.07       115.28      100.86      
C           68.41       119.66      103.7       
C           67.6        118.73      103.09      
S           70.02       119.13      103.38      
H           67.79       116.7       102.0       
H           66.52       118.79      103.08      
C           68.27       117.62      102.45      
C           69.67       117.68      102.48      
C           65.7        123.21      105.57      
C           66.91       122.59      105.42      
N           64.79       122.24      105.29      
C           65.38       121.09      104.6       
C           68.31       122.86      105.68      
O           68.98       123.71      106.26      
O           64.72       120.13      104.15      
C           70.26       122.29      104.35      
C           63.29       122.44      105.4       
H           62.91602    122.9794    104.52978   
H           63.02       123.12      106.24      
H           62.85       121.48      105.56      
H           70.41       122.11      103.29      
H           71.05477    121.87132   104.96737   
H           70.22       123.34      104.47      
N           68.97       121.89      104.83      
C           66.81       121.36      104.75      
C           68.07       120.81      104.53      
C           65.32       125.41      108.78      
C           64.58       126.01      107.78      
S           65.97       123.94      108.2       
H           64.25       125.56      105.67      
H           64.11       126.97      107.87      
C           64.69       125.28      106.57      
C           65.51       124.16      106.57      
C           65.68       126.31      112.98      
C           64.82       127.09      112.17      
C           66.3        125.32      112.33      
N           63.76       127.77      110.29      
N           63.55       128.55      111.35      
N           64.23       128.26      112.47      
C           62.32       129.23      111.44      
H           67.12       124.82      112.79      
H           66.74       124.27      110.58      
H           61.94653    129.42392   110.43451   
H           61.61       128.66      111.94      
H           62.48849    130.1918    111.92441   
C           66.09       125.03      110.97      
C           64.6        126.82      110.79      
C           65.32       125.76      110.13      
C           67.06       126.51      116.79      
C           66.51       127.77      116.43      
S           66.91       125.47      115.39      
H           65.41       128.63      114.66      
H           66.48       128.55      117.17      
C           65.88       127.78      115.1       
C           66.02       126.63      114.42      
C           70.53       127.34      119.93      
C           69.59       126.48      119.42      
N           70.23       128.6       119.41      
C           69.1        128.62      118.52      
C           69.17       125.11      119.36      
O           69.53       124.12      120.05      
O           68.77       129.58      117.83      
C           67.28       123.92      118.28      
C           70.41       129.84      120.14      
H           69.47047    130.28541   120.4671    
H           71.02       130.49      119.72      
H           70.86       129.55      121.12      
H           67.55       123.43      117.36      
H           66.1952     123.96458   118.37659   
H           67.65       123.18      119.02      
N           68.04       125.06      118.42      
C           68.82       127.17      118.42      
C           67.98       126.28      117.75      
C           74.01       127.11      121.65      
C           73.44       125.82      121.55      
S           72.99       128.17      120.83      
H           71.54       124.86      121.06      
H           74.05       124.93      121.73      
C           72.14       125.78      121.09      
C           71.7        126.99      120.68      
C           78.26       128.21      122.49      
C           77.13       129.15      122.62      
C           77.81       126.98      122.0       
N           75.04       129.9       122.5       
N           75.88       130.86      122.94      
N           77.16       130.44      123.06      
C           75.47       132.29      122.85      
H           78.56       126.24      121.92      
H           76.25       125.61      121.42      
H           74.39749    132.4044    122.6927    
H           75.71       132.74      123.78      
H           75.98855    132.78014   122.026     
C           76.43       126.68      121.73      
C           75.78       128.81      122.24      
C           75.43       127.47      121.92      
C           81.44       128.99      124.49      
C           81.74       128.09      123.55      
S           79.83       129.48      124.23      
H           80.74       127.07      121.87      
H           82.67       127.64      123.5       
C           80.65       127.7       122.68      
C           79.54       128.46      122.9       
C           84.87       128.51      127.76      
C           83.85       129.29      127.27      
N           85.19       127.6       126.83      
C           84.41       127.73      125.63      
C           82.91       130.41      127.58      
O           82.77       131.16      128.5       
O           84.41       126.95      124.67      
C           81.3        131.73      126.11      
C           86.35       126.7       126.68      
H           87.28646    127.248     126.57595   
H           86.47       125.93      127.44      
H           86.22       126.08      125.8       
H           80.23       131.6       126.07      
H           81.83283    132.27723   125.33236   
H           81.38       132.35      126.92      
N           82.03       130.47      126.43      
C           83.45       128.81      125.98      
C           82.24       129.37      125.58      
C           86.03       127.8       131.49      
C           85.02       128.71      131.53      
S           86.49       127.49      129.88      
H           83.7        129.66      129.99      
H           84.57       129.08      132.4       
C           84.56       129.09      130.22      
C           85.26       128.46      129.2       
C           88.25       126.23      134.84      
C           88.49       125.78      133.54      
C           87.27       127.19      134.99      
N           88.36       125.58      131.37      
N           89.17       124.74      131.86      
N           89.34       124.83      133.15      
C           90.22       124.11      131.08      
H           87.06       127.51      135.97      
H           85.85       128.46      134.08      
H           89.86594    123.96421   130.05947   
H           91.15       124.68      131.1       
H           90.52037    123.12832   131.4463    
C           86.54       127.61      133.86      
C           87.79       126.23      132.44      
C           86.79       127.21      132.53      
C           89.76       125.33      138.29      
C           90.08       124.29      137.43      
S           88.85       126.5       137.48      
H           89.65       123.78      135.31      
H           90.57       123.42      137.77      
C           89.64       124.56      136.09      
C           88.96       125.68      135.95      
C           89.78       126.62      142.85      
C           89.7        125.58      141.97      
N           90.03       127.76      142.15      
C           90.17       127.49      140.77      
C           89.49       124.14      141.85      
O           89.39       123.2       142.64      
O           90.49       128.34      139.92      
C           88.61       122.78      139.94      
C           89.93       129.15      142.51      
H           90.9459     129.46258   142.75154   
H           89.57       129.78      141.64      
H           89.2        129.28      143.29      
H           88.91       122.38      138.92      
H           87.56999    123.10226   139.88873   
H           88.83       121.97      140.65      
N           89.45       123.91      140.37      
C           89.81       126.13      140.64      
C           89.69       125.11      139.73      
C           88.62       126.98      146.64      
C           88.27       125.73      146.24      
S           89.52       127.8       145.4       
H           88.36       124.59      144.29      
H           87.69       125.06      146.82      
C           88.58       125.56      144.8       
C           89.28       126.59      144.19      
C           88.27       128.34      150.84      
C           88.22       129.21      149.73      
C           88.68       127.07      150.44      
N           88.46       129.88      147.61      
N           88.09       130.88      148.44      
N           87.99       130.55      149.71      
C           88.27       132.21      147.98      
H           88.86       126.34      151.15      
H           89.02       125.52      148.97      
H           88.56406    132.13828   146.93287   
H           87.26       132.69      147.99      
H           88.9374     132.7638    148.6403    
C           88.82       126.6       149.1       
C           88.56       128.79      148.39      
C           88.62       127.44      147.99      
C           89.23       130.21      154.17      
C           88.81       128.97      154.47      
S           89.17       130.41      152.45      
H           88.0        127.24      153.42      
H           88.76       128.64      155.49      
C           88.39       128.22      153.36      
C           88.42       128.84      152.21      
C           90.9        131.39      158.46      
C           90.64       131.81      157.18      
N           90.77       130.05      158.53      
C           90.47       129.47      157.3       
C           90.55       132.95      156.29      
O           90.68       134.14      156.5       
O           90.38       128.24      157.24      
C           89.97       133.26      153.89      
C           90.48       129.25      159.7       
H           89.40231    129.13803   159.81897   
H           90.64       129.82      160.59      
H           90.93       128.3       159.7       
H           89.21       132.91      153.18      
H           90.94393    133.33598   153.40649   
H           89.59       134.15      154.32      
N           90.0        132.37      155.07      
C           90.29       130.64      156.38      
C           89.86       131.01      155.12      
C           92.06       134.25      160.83      
C           92.68       133.07      161.23      
S           90.82       133.87      159.76      
H           92.9        131.01      160.44      
H           93.41       133.06      162.11      
C           92.39       131.97      160.35      
C           91.45       132.27      159.46      
C           92.23       138.42      162.26      
C           92.26       137.3       163.14      
C           92.11       138.0       160.97      
N           92.28       135.2       163.89      
N           92.3        136.07      164.9       
N           92.23       137.37      164.55      
C           92.91       135.76      166.22      
H           92.08       138.79      160.22      
H           92.21       136.44      159.43      
H           92.37572    134.8936    166.60988   
H           94.03       135.58      166.13      
H           92.7455     136.53959   166.96383   
C           92.14       136.65      160.53      
C           92.34       135.95      162.75      
C           92.14       135.57      161.39      
C           92.48       142.25      162.37      
C           92.26       141.91      163.63      
S           92.71       140.9       161.37      
H           91.69       139.99      164.8       
H           92.18       142.62      164.39      
C           91.98       140.48      163.89      
C           92.25       139.81      162.68      
C           92.08       145.81      159.27      
C           92.58       145.42      160.51      
N           91.57       144.76      158.58      
C           91.68       143.58      159.43      
C           93.3        145.76      161.74      
O           93.78       146.81      162.08      
O           91.24       142.48      159.18      
C           94.24       144.56      163.66      
C           91.42       144.41      157.17      
H           92.35173    144.19498   156.6468    
H           90.95       145.29      156.66      
H           90.78       143.51      156.98      
H           94.6        143.53      163.75      
H           93.88445    145.0151    164.58443   
H           95.06       145.21      163.28      
N           93.25       144.62      162.57      
C           92.28       144.04      160.64      
C           92.59       143.6       161.92      
C           91.7        149.48      157.69      
C           92.66       149.5       158.7       
S           91.31       147.82      157.36      
H           93.4        148.15      160.2       
H           93.16       150.39      159.08      
C           92.8        148.23      159.32      
C           92.18       147.17      158.72      
C           90.01       152.52      154.95      
C           90.57       152.9       156.24      
C           89.94       151.16      154.71      
N           91.62       152.53      158.18      
N           91.38       153.81      158.0       
N           90.79       154.12      156.82      
C           91.92       154.88      158.78      
H           89.6        150.84      153.75      
H           90.45       149.23      155.25      
H           91.39967    155.80662   158.53765   
H           92.98       154.93      158.6       
H           91.72473    154.6558    159.82867   
C           90.5        150.23      155.58      
C           91.04       151.9       157.14      
C           91.18       150.49      156.78      
H           42.4        92.36       72.26       
H           89.55       153.29      154.29      
