472

C           64.21       70.48       96.12       
C           62.94       70.25       96.53       
S           64.59       69.25       95.04       
H           61.37       68.85       95.95       
H           62.4        70.86       97.27       
C           62.37       69.11       95.83       
C           63.03       68.52       94.86       
C           66.17       73.62       99.25       
C           66.29       72.94       98.08       
N           64.85       73.39       99.73       
C           64.2        72.34       98.91       
C           67.13       72.72       96.94       
O           68.33       73.08       96.63       
O           63.27       71.7        99.3        
C           66.74       71.67       94.68       
C           63.98       74.35       100.37      
H           63.15404    74.6901     99.74532    
H           64.53       75.23       100.6       
H           63.52       73.86       101.27      
H           65.91       71.65       94.08       
H           67.44137    70.87043    94.44153    
H           67.28       72.66       94.41       
N           66.38       71.81       96.11       
C           65.1        72.16       97.78       
C           65.19       71.44       96.65       
C           69.13       76.18       100.12      
C           68.21       76.09       101.15      
S           68.5        75.16       98.81       
H           66.39       75.03       101.7       
H           68.3        76.57       102.08      
C           67.12       75.22       100.91      
C           67.14       74.62       99.65       
C           72.46       79.11       99.84       
C           72.42       77.91       99.06       
C           71.35       79.27       100.65      
N           71.62       75.92       98.43       
N           72.74       76.23       97.89       
N           73.31       77.33       98.18       
C           73.18       75.36       96.83       
H           71.3        80.21       101.27      
H           69.49       78.57       101.51      
H           72.43223    74.58319    96.67028    
H           73.26       75.9        95.9        
H           74.10797    74.85133    97.09121    
C           70.26       78.35       100.74      
C           71.3        77.02       99.17       
C           70.2        77.17       100.04      
C           75.72       81.54       99.55       
C           74.65       82.21       100.18      
S           75.04       80.04       99.01       
H           72.74       81.75       101.07      
H           74.75       83.23       100.57      
C           73.51       81.4        100.4       
C           73.51       80.13       99.85       
C           79.35       84.6        99.12       
C           78.83       83.35       98.94       
N           78.3        85.31       99.79       
C           77.22       84.47       100.12      
C           79.04       82.14       98.18       
O           79.92       81.7        97.56       
O           76.29       84.92       100.77      
C           78.07       79.76       98.42       
C           78.36       86.61       100.46      
H           78.63998    86.54854    101.51163   
H           77.39       86.94       100.44      
H           79.16       87.22       100.11      
H           77.25       79.36       97.78       
H           78.07       79.17202    99.33782    
H           79.09       79.53       98.06       
N           78.0        81.21       98.56       
C           77.56       83.23       99.5        
C           77.01       81.99       99.23       
C           82.88       86.29       98.3        
C           82.9        85.04       97.8        
S           81.22       86.65       98.91       
H           81.63       83.22       98.01       
H           83.84       84.62       97.49       
C           81.67       84.31       98.07       
C           80.66       85.1        98.66       
C           85.9        89.41       98.16       
C           86.29       88.0        98.22       
C           84.62       89.67       98.35       
N           86.05       85.84       98.48       
N           87.28       86.19       98.37       
N           87.57       87.49       98.16       
C           88.38       85.34       98.61       
H           84.23       90.71       98.34       
H           82.59       88.9        98.44       
H           88.08381    84.43661    99.14315    
H           88.77       85.14       97.65       
H           89.18586    85.83753    99.14958    
C           83.66       88.61       98.4        
C           85.35       86.97       98.25       
C           83.95       87.24       98.39       
C           89.01       91.96       97.76       
C           88.09       92.5        98.63       
S           88.41       90.45       97.18       
H           86.12       91.94       99.52       
H           88.2        93.44       99.19       
C           86.9        91.68       98.81       
C           86.89       90.55       98.1        
C           92.37       95.44       98.1        
C           91.91       94.28       97.54       
N           91.48       95.72       99.12       
C           90.56       94.64       99.34       
C           92.23       93.35       96.44       
O           93.09       93.32       95.61       
O           89.76       94.66       100.26      
C           91.06       91.41       95.47       
C           91.45       96.91       100.02      
H           90.70763    97.6087     99.63426    
H           90.8        96.73       100.91      
H           92.39       97.3        100.51      
H           90.03       91.05       95.23       
H           91.69912    90.54613    95.65261    
H           91.39       91.91       94.57       
N           91.24       92.34       96.58       
C           90.78       93.7        98.25       
C           90.3        92.59       97.58       
C           95.14       98.04       97.47       
C           94.96       97.35       96.3        
S           94.3        97.21       98.69       
H           93.83       95.61       95.65       
H           95.59       97.47       95.42       
C           93.99       96.32       96.45       
C           93.37       96.3        97.62       
C           97.85       101.36      98.32       
C           96.98       100.79      99.35       
C           97.63       100.82      97.09       
N           95.37       99.45       100.24      
N           95.76       100.42      101.12      
N           96.82       101.18      100.68      
C           95.16       100.6       102.42      
H           98.2        101.14      96.25       
H           96.6        99.41       95.78       
H           94.23194    100.03001   102.46385   
H           95.86       100.27      103.17      
H           95.04945    101.66861   102.60424   
C           96.65       99.81       96.82       
C           96.1        99.7        99.11       
C           95.97       99.16       97.78       
C           100.81      103.97      97.89       
C           100.45      103.84      99.22       
S           99.78       102.89      97.06       
H           98.99       102.9       100.57      
H           100.94      104.38      100.02      
C           99.32       103.05      99.53       
C           98.87       102.37      98.41       
C           103.44      106.03      94.47       
C           102.97      106.04      95.75       
N           103.03      104.8       93.98       
C           102.09      104.03      94.91       
C           102.86      106.89      96.88       
O           103.24      108.03      97.12       
O           101.48      103.06      94.53       
C           101.31      106.98      98.88       
C           103.19      104.32      92.6        
H           103.61764   103.31749   92.58598    
H           103.81      105.03      92.02       
H           102.25      104.24      92.11       
H           101.51      106.63      99.86       
H           100.27253   107.18173   98.61343    
H           101.72      107.98      98.86       
N           102.03      106.22      97.83       
C           102.13      104.89      96.07       
C           101.67      104.95      97.36       
C           105.57      109.04      93.07       
C           105.96      108.76      94.31       
S           104.44      107.77      92.61       
H           105.44      107.35      96.01       
H           106.53      109.54      94.89       
C           105.34      107.58      94.93       
C           104.51      106.93      94.12       
C           106.2       112.29      90.12       
C           107.02      112.23      91.27       
C           105.29      111.31      90.07       
N           107.86      111.29      93.12       
N           108.48      112.47      92.77       
N           108.05      113.0       91.63       
C           109.8       112.86      93.13       
H           104.63      111.22      89.11       
H           104.09      109.82      91.01       
H           109.88793   112.79405   94.21444    
H           110.49      112.12      92.63       
H           110.05063   113.85574   92.76422    
C           105.04      110.3       91.03       
C           106.79      111.15      92.2        
C           105.8       110.14      92.1        
C           105.97      114.73      87.02       
C           106.8       115.29      87.89       
S           105.69      113.03      87.48       
H           107.64      114.79      89.93       
H           107.17      116.31      87.96       
C           106.98      114.52      89.08       
C           106.37      113.3       89.07       
C           105.42      118.63      84.26       
C           105.09      117.33      84.49       
N           106.71      118.77      84.71       
C           107.09      117.59      85.43       
C           104.19      116.23      84.21       
O           103.17      116.17      83.5        
O           108.17      117.52      86.04       
C           103.36      114.18      85.27       
C           107.57      119.93      84.9        
H           107.46603   120.2835    85.92583    
H           107.34      120.77      84.32       
H           108.57      119.67      84.56       
H           103.21      113.93      86.32       
H           103.40303   113.34801   84.56712    
H           102.49      114.75      84.98       
N           104.47      115.1       85.03       
C           106.03      116.69      85.4        
C           105.59      115.44      85.83       
C           104.05      121.52      82.05       
C           103.27      120.44      81.84       
S           105.25      121.16      83.19       
H           103.21      118.28      82.45       
H           102.47      120.49      81.11       
C           103.73      119.28      82.54       
C           104.75      119.57      83.37       
C           103.3       125.68      80.64       
C           104.58      125.18      80.91       
C           102.37      124.66      80.78       
N           106.12      123.91      81.71       
N           106.58      124.99      81.19       
N           105.71      125.91      80.83       
C           108.0       125.24      81.37       
H           101.38      124.85      80.48       
H           101.76      122.82      81.39       
H           108.31171   124.59532   82.19178    
H           108.56      124.97      80.45       
H           108.23606   126.26292   81.66328    
C           102.64      123.4       81.29       
C           104.82      123.88      81.42       
C           103.84      122.91      81.57       
C           102.93      128.45      77.89       
C           101.78      128.31      78.54       
S           104.12      127.41      78.6        
H           100.83      127.3       80.2        
H           101.0       128.95      78.23       
C           101.74      127.45      79.65       
C           102.98      126.86      79.84       
C           101.77      131.09      74.0        
C           102.69      130.36      74.7        
N           100.64      131.14      74.77       
C           100.95      130.8       76.11       
C           104.0       129.85      74.61       
O           104.79      129.91      73.76       
O           100.18      130.9       77.05       
C           105.07      128.0       75.63       
C           99.36       130.88      74.23       
H           99.04648    129.85394   74.42239    
H           99.35       131.04      73.15       
H           98.62       131.55      74.59       
H           104.78      127.08      76.12       
H           106.05398   128.22653   76.04058    
H           105.07      127.75      74.56       
N           104.19      129.09      75.83       
C           102.21      130.09      76.03       
C           103.12      129.25      76.67       
C           102.79      132.22      70.43       
C           103.18      130.96      70.58       
S           101.9       132.86      71.79       
H           103.1       129.54      72.25       
H           103.97      130.45      70.01       
C           102.75      130.52      71.9        
C           101.89      131.32      72.57       
C           104.14      135.09      67.35       
C           104.9       133.96      67.84       
C           102.92      135.17      68.02       
N           105.56      132.19      69.09       
N           106.49      132.63      68.19       
N           106.13      133.66      67.42       
C           107.85      132.06      68.2        
H           102.19      135.92      67.75       
H           101.49      134.47      69.42       
H           108.00664   131.37213   69.0309     
H           108.07      131.63      67.26       
H           108.57771   132.86619   68.29275    
C           102.52      134.26      69.03       
C           104.53      133.0       68.8        
C           103.23      133.17      69.44       
C           104.47      138.0       64.64       
C           105.62      137.28      64.68       
S           103.36      137.31      65.72       
H           106.52      135.64      65.76       
H           106.45      137.51      64.03       
C           105.67      136.24      65.66       
C           104.48      136.09      66.34       
C           102.64      141.93      62.55       
C           103.33      140.76      62.39       
N           102.43      142.17      63.88       
C           102.97      141.07      64.67       
C           103.92      139.9       61.41       
O           103.92      139.84      60.17       
O           102.86      140.93      65.87       
C           105.16      137.72      61.43       
C           101.53      143.04      64.62       
H           102.04433   143.89956   65.04978    
H           100.71      143.35      63.98       
H           101.03      142.48      65.41       
H           105.16      136.78      61.92       
H           106.17413   138.08423   61.26574    
H           104.61      137.5       60.5        
N           104.41      138.74      62.19       
C           103.51      140.16      63.65       
C           104.16      138.93      63.53       
C           100.69      143.95      59.89       
C           101.76      143.4       59.34       
S           100.88      143.92      61.58       
H           103.54      142.34      59.95       
H           101.93      143.31      58.23       
C           102.63      142.78      60.22       
C           102.28      142.9       61.55       
C           97.28       145.95      58.06       
C           97.11       145.1       59.15       
C           98.55       146.3       57.83       
N           97.79       143.47      60.59       
N           96.53       143.61      60.46       
N           96.02       144.63      59.72       
C           95.7        142.66      61.12       
H           98.73       147.17      57.24       
H           100.67      145.86      57.96       
H           96.18818    142.32309   62.03448    
H           94.76       143.08      61.4        
H           95.55588    141.80901   60.45431    
C           99.69       145.63      58.38       
C           98.22       144.37      59.71       
C           99.54       144.55      59.24       
C           94.54       147.24      55.63       
C           94.04       147.22      56.91       
S           96.23       146.85      55.77       
H           94.57       146.68      59.03       
H           92.98       147.52      57.08       
C           94.86       146.79      57.96       
C           96.14       146.62      57.47       
C           90.65       147.75      52.97       
C           92.01       147.77      53.06       
N           90.12       147.35      54.22       
C           91.22       147.19      55.14       
C           93.21       148.0       52.34       
O           93.4        148.42      51.24       
O           90.98       146.83      56.27       
C           95.6        148.16      52.88       
C           88.78       146.85      54.62       
H           88.28822    147.64825   55.17592    
H           88.12       146.58      53.87       
H           88.89       145.97      55.22       
H           96.32       147.44      53.16       
H           95.86816    149.1819    53.14816    
H           95.72       148.1       51.83       
N           94.25       147.84      53.3        
C           92.42       147.39      54.34       
C           93.77       147.47      54.52       
C           88.02       148.63      50.25       
C           89.27       148.8       49.73       
S           88.18       147.77      51.71       
H           91.36       148.79      50.42       
H           89.38       149.27      48.75       
C           90.32       148.44      50.56       
C           89.91       148.09      51.79       
C           83.9        149.49      48.8        
C           85.03       149.53      47.98       
C           84.16       149.26      50.11       
N           87.25       149.43      47.44       
N           86.5        149.65      46.38       
N           85.2        149.78      46.65       
C           87.05       149.78      45.0        
H           83.38       149.32      50.82       
H           85.51       148.94      51.73       
H           88.13241    149.65182   44.99288    
H           86.53       148.99      44.38       
H           86.86371    150.79741   44.65609    
C           85.5        148.99      50.64       
C           86.36       149.35      48.48       
C           86.62       148.94      49.85       
C           80.12       149.29      48.16       
C           80.73       149.09      46.95       
S           81.32       149.46      49.38       
H           82.67       149.37      46.1        
H           80.13       148.96      46.09       
C           82.1        149.38      47.01       
C           82.6        149.54      48.23       
C           75.49       148.17      47.59       
C           76.52       148.62      48.36       
N           76.16       147.43      46.59       
C           77.51       147.81      46.45       
C           76.81       149.17      49.63       
O           76.05       149.55      50.5        
O           78.12       147.53      45.4        
C           78.59       150.38      50.83       
C           75.6        146.25      45.96       
H           76.21134    145.38734   46.22491    
H           75.49       146.32      44.92       
H           74.63       146.02      46.31       
H           79.34       151.12      50.53       
H           78.98186    149.81069   51.67287    
H           77.77       151.06      51.11       
N           78.17       149.52      49.65       
C           77.79       148.45      47.68       
C           78.75       149.01      48.48       
C           71.58       148.05      47.96       
C           72.19       148.36      49.09       
S           72.77       147.89      46.7        
H           74.23       148.18      49.95       
H           71.68       148.43      50.04       
C           73.62       148.16      49.13       
C           74.14       148.0       47.88       
C           67.41       147.03      47.08       
C           68.0        146.85      48.42       
C           68.29       147.62      46.18       
N           69.5        146.92      50.05       
N           68.35       146.36      50.46       
N           67.44       146.3       49.49       
C           68.36       145.41      51.62       
H           68.06       147.85      45.1        
H           70.31       148.28      45.72       
H           68.84441    145.85229   52.49053    
H           67.32       145.04      51.73       
H           68.99054    144.5508    51.39134    
C           69.66       147.9       46.47       
C           69.35       147.18      48.71       
C           70.2        147.67      47.74       
C           64.13       144.84      46.38       
C           64.46       145.53      45.25       
S           65.22       145.28      47.62       
H           66.01       146.9       44.6        
H           63.87       145.42      44.32       
C           65.58       146.4       45.43       
C           66.13       146.41      46.64       
C           60.41       142.09      45.15       
C           61.17       142.66      46.12       
N           60.93       142.45      43.93       
C           62.16       143.24      44.05       
C           61.28       142.84      47.54       
O           60.57       142.63      48.46       
O           62.99       143.44      43.23       
C           62.8        143.72      49.13       
C           60.22       142.65      42.72       
H           60.26228    143.71407   42.48746    
H           59.19       142.35      42.67       
H           60.71       142.11      41.92       
H           63.43       144.6       49.29       
H           63.37248    142.86127   49.48065    
H           61.89       143.85      49.65       
N           62.44       143.66      47.77       
C           62.27       143.37      45.5        
C           63.03       143.95      46.51       
C           57.6        139.35      45.49       
C           57.48       140.2       46.53       
S           58.72       139.97      44.32       
H           58.53       141.98      47.25       
H           56.8        140.04      47.38       
C           58.49       141.23      46.5        
C           59.19       141.33      45.32       
C           55.84       135.32      44.69       
C           55.91       135.87      45.98       
C           56.36       136.2       43.76       
N           56.15       137.42      47.64       
N           55.59       136.25      48.1        
N           55.28       135.39      47.08       
C           55.19       136.16      49.46       
H           56.56       135.88      42.76       
H           57.53       137.79      43.24       
H           55.4938     135.22789   49.93641    
H           54.09       136.27      49.48       
H           55.72247    136.94806   49.99247    
C           56.94       137.41      44.03       
C           56.35       137.21      46.31       
C           56.99       138.04      45.26       
H           62.63       68.17       93.87       
H           54.93       134.69      44.48       
