472

C           42.95       40.35       49.16       
C           43.78       40.88       48.28       
S           42.02       39.13       48.37       
H           44.33       40.74       46.17       
H           44.47       41.66       48.56       
C           43.66       40.33       47.0        
C           42.78       39.32       46.85       
C           44.75       41.94       53.23       
C           43.77       41.2        52.6        
N           45.63       42.46       52.32       
C           45.25       41.97       51.01       
C           42.58       40.35       52.83       
O           42.05       40.01       53.94       
O           45.83       42.39       50.05       
C           40.83       39.24       51.36       
C           46.89       43.27       52.4        
H           47.7623     42.6265     52.2856     
H           46.87       43.87       53.31       
H           46.89       44.02       51.61       
H           40.94       38.36       50.76       
H           40.03756    39.90037    51.0078     
H           40.55       38.9        52.37       
N           42.11       39.91       51.49       
C           44.03       41.23       51.2        
C           42.99       40.54       50.56       
C           44.0        43.15       56.9        
C           45.28       43.24       56.69       
S           43.15       42.52       55.48       
H           46.76       42.56       55.19       
H           45.97       43.69       57.42       
C           45.68       42.64       55.48       
C           44.66       42.29       54.63       
C           41.87       43.95       60.54       
C           41.43       42.99       59.63       
C           42.79       44.81       60.08       
N           41.49       41.7        57.83       
N           40.5        41.35       58.62       
N           40.43       42.04       59.74       
C           39.89       40.08       58.5        
H           43.1        45.64       60.67       
H           44.31       45.16       58.68       
H           40.18614    39.66678    57.53582    
H           40.22       39.42       59.35       
H           38.80578    40.1912     58.4861     
C           43.47       44.56       58.89       
C           42.11       42.71       58.48       
C           43.22       43.45       58.1        
C           41.08       45.02       64.32       
C           40.09       44.19       63.92       
S           42.23       45.12       63.01       
H           39.46       43.05       62.11       
H           39.27       43.97       64.6        
C           40.22       43.73       62.57       
C           41.31       44.16       61.88       
C           40.74       45.13       69.1        
C           41.19       45.72       67.94       
N           40.08       43.99       68.71       
C           40.14       43.77       67.31       
C           41.9        46.92       67.46       
O           42.32       48.02       67.8        
O           39.66       42.77       66.83       
C           42.62       47.53       65.08       
C           39.17       43.15       69.45       
H           38.16818    43.5722     69.37129    
H           39.46       43.07       70.54       
H           39.09       42.14       68.98       
H           42.17       47.37       64.08       
H           43.70543    47.44079    65.03539    
H           42.41       48.56       65.46       
N           42.02       46.61       66.04       
C           40.87       44.91       66.79       
C           41.4        45.44       65.7        
C           41.39       46.29       72.81       
C           42.28       46.89       72.02       
S           40.29       45.48       71.79       
H           42.99       46.78       69.88       
H           43.0        47.59       72.46       
C           42.27       46.44       70.63       
C           41.26       45.59       70.35       
C           40.92       46.94       77.13       
C           40.01       46.15       76.39       
C           41.98       47.43       76.38       
N           39.25       45.12       74.63       
N           38.51       44.87       75.73       
N           39.02       45.36       76.84       
C           37.73       43.6        75.72       
H           42.78       47.98       76.81       
H           42.97       47.7        74.58       
H           37.59315    43.34791    74.66842    
H           38.31       42.81       76.25       
H           36.7413     43.74937    76.15389    
C           42.06       47.26       74.96       
C           40.19       45.97       75.0        
C           41.19       46.54       74.23       
C           40.47       47.22       81.05       
C           41.55       48.03       80.67       
S           39.83       46.46       79.69       
H           42.67       48.53       78.86       
H           42.06       48.6        81.48       
C           41.83       47.96       79.31       
C           40.95       47.19       78.62       
C           39.44       49.27       85.26       
C           39.3        48.14       84.43       
N           40.33       50.07       84.7        
C           40.66       49.65       83.35       
C           38.69       46.85       84.3        
O           37.98       46.19       85.07       
O           41.37       50.33       82.65       
C           38.74       45.13       82.43       
C           41.25       51.05       85.26       
H           42.0371     50.52765    85.80381    
H           41.69       51.57       84.47       
H           40.75       51.75       85.92       
H           39.56       44.84       81.83       
H           37.83161    45.08902    81.82896    
H           38.7        44.51       83.31       
N           39.04       46.42       82.97       
C           40.06       48.38       83.22       
C           39.8        47.36       82.32       
C           38.04       50.06       88.93       
C           37.83       48.77       88.63       
S           38.7        50.84       87.49       
H           38.42       47.34       87.03       
H           37.44       48.03       89.33       
C           38.3        48.39       87.31       
C           38.91       49.37       86.65       
C           37.35       52.1        92.81       
C           38.2        52.6        91.76       
C           36.66       50.9        92.48       
N           39.42       52.58       89.81       
N           39.7        53.55       90.66       
N           39.07       53.62       91.87       
C           40.77       54.5        90.4        
H           36.1        50.36       93.26       
H           36.43       49.27       91.03       
H           41.34819    54.09809    89.56797    
H           40.38       55.51       90.16       
H           41.47159    54.64173    91.22206    
C           36.97       50.22       91.22       
C           38.41       51.96       90.5        
C           37.81       50.71       90.19       
C           37.75       53.95       96.3        
C           36.47       53.37       96.25       
S           38.63       53.39       94.9        
H           35.29       52.07       94.92       
H           35.77       53.55       97.03       
C           36.21       52.58       95.08       
C           37.19       52.75       94.14       
C           37.46       57.39       99.67       
C           38.24       56.76       98.74       
N           36.2        56.92       99.5        
C           36.15       55.76       98.65       
C           39.61       56.76       98.16       
O           40.62       57.47       98.28       
O           35.07       55.26       98.34       
C           40.8        55.37       96.5        
C           35.06       57.77       99.44       
H           34.74473    58.03623    98.43113    
H           35.36       58.73       99.91       
H           34.2        57.34       99.98       
H           40.63       55.3        95.47       
H           41.30645    54.43668    96.74599    
H           41.52       56.19       96.65       
N           39.52       55.61       97.24       
C           37.54       55.62       98.13       
C           38.28       54.97       97.23       
C           38.1        59.33       102.97      
C           39.25       59.4        102.27      
S           36.79       58.66       102.06      
H           39.94       58.67       100.29      
H           40.12       59.96       102.62      
C           39.07       58.76       100.98      
C           37.78       58.35       100.68      
C           37.92       59.37       107.42      
C           36.76       59.13       106.67      
C           38.95       59.8        106.7       
N           35.42       59.1        104.83      
N           34.87       58.7        105.94      
N           35.58       58.61       107.06      
C           33.5        58.28       105.93      
H           39.92       59.95       107.13      
H           39.86       60.03       104.84      
H           33.04983    58.38165    104.94252   
H           33.41       57.24       106.27      
H           32.94727    58.80439    106.70949   
C           38.92       59.8        105.3       
C           36.67       59.32       105.22      
C           37.86       59.55       104.46      
C           39.01       58.44       111.13      
C           37.67       58.37       111.02      
S           39.55       59.28       109.71      
H           36.14       58.44       109.35      
H           37.08       58.04       111.82      
C           37.11       58.61       109.67      
C           38.04       59.08       108.85      
C           40.1        58.92       115.75      
C           40.49       58.7        114.46      
N           38.71       59.03       115.81      
C           38.23       58.83       114.49      
C           41.64       58.4        113.6       
O           42.76       58.24       113.89      
O           37.05       58.9        114.2       
C           41.77       57.04       111.56      
C           37.75       58.89       116.86      
H           37.48727    57.83216    116.86691   
H           36.83       59.52       116.6       
H           38.11       59.18       117.86      
H           41.79       57.13       110.49      
H           41.54803    56.01609    111.86073   
H           42.81       57.19       111.72      
N           41.07       58.07       112.31      
C           39.36       58.71       113.61      
C           39.8        58.48       112.29      
C           42.15       58.96       119.05      
C           42.88       59.5        118.0       
S           40.67       58.39       118.47      
H           42.55       59.95       115.85      
H           43.93       59.82       118.09      
C           42.19       59.56       116.79      
C           40.92       59.08       116.88      
C           43.2        58.56       123.29      
C           43.81       59.41       122.39      
C           42.25       57.75       122.65      
N           44.47       60.37       120.45      
N           45.14       60.82       121.47      
N           44.85       60.31       122.64      
C           45.81       62.11       121.35      
H           41.7        56.97       123.2       
H           41.14       57.11       120.92      
H           46.53268    62.13147    120.5343    
H           45.07       62.85       121.23      
H           46.36002    62.39911    122.24554   
C           41.91       57.81       121.26      
C           43.59       59.47       120.97      
C           42.56       58.72       120.38      
C           42.77       58.06       127.19      
C           43.69       59.1        126.92      
S           42.36       57.42       125.62      
H           44.86       59.91       125.25      
H           44.27       59.62       127.74      
C           44.05       59.29       125.56      
C           43.33       58.55       124.7       
C           40.15       55.13       129.73      
C           40.82       56.27       129.68      
N           40.55       54.24       128.7       
C           41.3        55.0        127.76      
C           41.08       57.55       130.4       
O           40.8        57.98       131.54      
O           41.57       54.61       126.63      
C           42.26       59.67       129.84      
C           40.65       52.8        128.69      
H           41.66817    52.44647    128.52738   
H           40.05       52.39       127.87      
H           40.22       52.38       129.63      
H           42.15       60.36       129.04      
H           43.1971     59.71325    130.39505   
H           41.51       60.09       130.55      
N           41.87       58.33       129.46      
C           41.62       56.29       128.51      
C           42.21       57.58       128.36      
C           37.52       54.1        132.51      
C           38.48       54.95       133.08      
S           38.08       53.55       130.96      
H           40.33       55.95       132.39      
H           38.4        55.39       134.08      
C           39.56       55.31       132.14      
C           39.45       54.67       130.94      
C           33.58       52.64       133.99      
C           34.58       53.12       134.88      
C           34.01       52.58       132.69      
N           36.68       53.96       135.39      
N           35.93       53.78       136.48      
N           34.7        53.31       136.26      
C           36.44       53.91       137.86      
H           33.3        52.2        131.92      
H           35.54       52.79       131.23      
H           37.48403    54.22321    137.86      
H           35.79       54.69       138.27      
H           36.2781     53.08027    138.54807   
C           35.3        52.99       132.26      
C           35.85       53.6        134.33      
C           36.26       53.59       133.03      
C           29.74       51.96       134.63      
C           30.47       51.36       135.69      
S           30.91       52.75       133.51      
H           32.6        51.18       136.28      
H           29.97       50.83       136.52      
C           31.88       51.59       135.54      
C           32.27       52.29       134.44      
C           25.74       53.16       132.5       
C           26.38       52.75       133.65      
N           26.75       53.24       131.55      
C           27.98       52.73       132.03      
C           26.17       52.56       135.07      
O           25.25       52.62       135.84      
O           28.91       52.46       131.33      
C           27.4        51.83       137.08      
C           26.7        53.47       130.08      
H           26.99531    54.51438    129.97916   
H           27.46       52.88       129.57      
H           25.76       53.27       129.62      
H           28.36       52.03       137.49      
H           27.16998    50.76892    137.17646   
H           26.66       52.43       137.61      
N           27.38       52.19       135.64      
C           27.76       52.49       133.44      
C           28.31       52.1        134.59      
C           22.13       54.7        131.58      
C           22.12       54.17       132.86      
S           23.78       54.44       130.94      
H           23.54       53.06       134.24      
H           21.32       54.27       133.6       
C           23.35       53.54       133.26      
C           24.32       53.51       132.32      
C           19.45       57.5        129.7       
C           19.01       56.8        130.82      
C           20.68       57.23       129.18      
N           19.27       55.29       132.45      
N           18.06       55.71       132.29      
N           17.9        56.79       131.51      
C           16.87       55.0        132.8       
H           21.07       57.7        128.29      
H           22.46       55.92       129.3       
H           17.18959    54.41053    133.65935   
H           16.15       55.75       133.09      
H           16.41462    54.36947    132.03636   
C           21.53       56.16       129.8       
C           19.9        55.91       131.44      
C           21.2        55.55       130.95      
C           17.88       60.05       127.04      
C           16.87       59.7        127.9       
S           19.39       59.51       127.84      
H           16.53       58.19       129.66      
H           15.83       60.01       127.75      
C           17.22       58.76       128.99      
C           18.58       58.49       129.01      
C           16.21       63.84       124.65      
C           17.14       62.81       124.75      
N           15.25       63.72       125.68      
C           15.63       62.59       126.5       
C           18.38       62.37       124.21      
O           19.13       62.76       123.37      
O           15.07       62.26       127.58      
C           19.82       60.4        124.53      
C           14.07       64.46       126.1       
H           14.30311    65.4207     126.55916   
H           13.47       64.71       125.15      
H           13.44       63.92       126.67      
H           19.57       59.38       124.72      
H           20.81492    60.61372    124.9206    
H           19.84       60.6        123.48      
N           18.79       61.3        125.05      
C           16.77       62.03       125.85      
C           17.86       61.09       126.02      
C           16.22       66.72       121.89      
C           16.89       65.58       121.54      
S           15.53       66.38       123.4       
H           17.34       63.56       122.21      
H           17.36       65.43       120.55      
C           16.89       64.47       122.41      
C           16.2        64.76       123.55      
C           15.35       70.08       119.2       
C           14.93       70.09       120.58      
C           16.01       68.92       118.81      
N           14.68       69.28       122.61      
N           14.22       70.51       122.49      
N           14.24       70.98       121.25      
C           13.36       70.95       123.54      
H           16.41       68.76       117.84      
H           16.78       66.92       119.28      
H           13.63232    70.36952    124.42147   
H           13.58       72.01       123.7       
H           12.30854    70.85701    123.26819   
C           16.27       67.79       119.68      
C           15.24       68.97       121.42      
C           15.91       67.79       120.97      
C           15.45       72.56       116.14      
C           14.78       73.25       117.13      
S           15.79       70.93       116.7       
H           14.06       72.86       119.22      
H           14.61       74.3        117.04      
C           14.52       72.46       118.32      
C           15.13       71.22       118.27      
C           17.91       72.31       112.01      
C           16.9        73.0        112.72      
N           18.44       71.39       112.91      
C           17.93       71.58       114.24      
C           15.84       74.02       112.7       
O           15.41       74.62       111.73      
O           18.46       71.1        115.25      
C           13.93       74.68       114.17      
C           18.68       69.96       112.7       
H           17.85398    69.33699    113.04301   
H           19.49       69.58       113.21      
H           18.7        69.72       111.63      
H           13.88       75.26       115.09      
H           13.06912    74.01282    114.12696   
H           13.83       75.37       113.39      
N           15.12       73.94       113.99      
C           16.82       72.46       114.08      
C           15.85       73.09       114.84      
C           19.1        72.57       108.23      
C           18.39       73.66       108.56      
S           19.29       71.53       109.61      
H           17.24       74.42       110.33      
H           18.07       74.4        107.94      
C           17.85       73.6        109.88      
C           18.38       72.58       110.64      
C           21.12       71.37       104.31      
C           20.83       72.81       104.67      
C           20.73       70.55       105.37      
N           20.24       74.5        106.03      
N           20.76       74.93       104.85      
N           21.13       73.98       104.04      
C           20.91       76.29       104.54      
H           20.87       69.51       105.19      
H           19.79       70.1        107.21      
H           20.57595    76.88548    105.38965   
H           21.99       76.55       104.38      
H           20.31666    76.44727    103.63927   
C           20.09       70.93       106.58      
C           20.22       73.14       105.96      
C           19.75       72.18       106.92      
C           23.14       70.76       101.04      
C           22.58       69.6        101.42      
S           22.55       72.03       102.04      
H           21.44       68.88       103.15      
H           22.66       68.71       100.84      
C           21.9        69.65       102.66      
C           21.79       70.92       103.14      
C           24.32       69.57       96.55       
C           24.49       70.44       97.58       
N           23.17       68.84       96.77       
C           22.73       69.02       98.11       
C           25.29       71.48       98.1        
O           26.24       72.04       97.65       
O           21.82       68.44       98.62       
C           25.29       72.96       100.13      
C           22.17       68.66       95.71       
H           21.46135    69.48793    95.73105    
H           21.7        67.71       95.78       
H           22.6        68.67       94.73       
H           25.21       72.79       101.21      
H           24.75103    73.87042    99.8678     
H           26.35       73.08       99.91       
N           24.69       71.8        99.39       
C           23.6        70.07       98.64       
C           23.69       70.89       99.73       
C           25.7        70.62       92.92       
C           26.05       69.35       93.19       
S           24.92       71.25       94.36       
H           25.45       67.75       94.74       
H           26.57       68.75       92.49       
C           25.43       68.77       94.41       
C           24.92       69.76       95.2        
C           26.76       73.41       89.66       
C           27.53       72.21       89.98       
C           25.83       73.67       90.66       
N           27.99       70.25       90.92       
N           28.93       70.59       90.07       
N           28.7        71.78       89.47       
C           30.01       69.7        89.75       
H           25.23       74.61       90.64       
H           24.65       73.11       92.21       
H           30.17818    69.08335    90.63293    
H           30.9        70.34       89.5        
H           29.72047    69.07857    88.90259    
C           25.45       72.75       91.62       
C           27.12       71.27       90.98       
C           26.08       71.52       91.84       
H           42.9        38.53       46.11       
H           27.25       74.19       89.17       
