472

C           4.19        62.83       90.24       
C           4.12        63.66       91.29       
S           4.39        63.8        88.8        
H           4.28        65.88       91.72       
H           3.88        63.42       92.33       
C           4.18        65.09       90.94       
C           4.16        65.33       89.62       
C           5.1         58.69       92.4        
C           4.71        59.35       91.29       
N           5.3         59.64       93.37       
C           5.01        60.98       92.85       
C           4.22        59.06       89.91       
O           4.11        58.04       89.16       
O           5.12        61.92       93.63       
C           4.23        60.44       87.85       
C           5.54        59.43       94.82       
H           6.4342      59.89909    95.23045    
H           5.46        58.36       95.07       
H           4.74        59.87       95.44       
H           4.82        61.31       87.49       
H           3.30267     60.48993    87.27933    
H           4.72        59.51       87.52       
N           4.09        60.4        89.3        
C           4.7         60.77       91.46       
C           4.32        61.38       90.31       
C           5.37        54.79       93.24       
C           4.53        54.93       92.23       
S           6.03        56.32       93.71       
H           3.49        56.7        91.27       
H           4.06        54.14       91.74       
C           4.24        56.35       91.99       
C           4.96        57.27       92.7        
C           6.71        51.26       95.58       
C           5.91        51.14       94.45       
C           7.05        52.61       95.91       
N           4.84        51.85       92.53       
N           4.94        50.52       92.68       
N           5.73        50.04       93.69       
C           4.21        49.59       91.79       
H           7.56        52.86       96.8        
H           6.95        54.72       95.5        
H           3.70608     50.1294     90.98799    
H           4.9         48.84       91.4        
H           3.52634     49.00816    92.4082     
C           6.56        53.73       95.13       
C           5.56        52.25       93.64       
C           5.87        53.58       93.97       
C           8.8         48.39       97.45       
C           7.58        47.85       97.04       
S           8.82        50.09       97.04       
H           5.86        48.57       95.75       
H           7.42        46.76       97.21       
C           6.77        48.76       96.2        
C           7.23        50.08       96.26       
C           13.25       47.8        99.36       
C           12.19       47.2        98.72       
N           13.01       49.16       99.43       
C           11.7        49.46       98.97       
C           11.63       46.0        98.1        
O           12.11       44.86       98.07       
O           11.15       50.46       99.01       
C           9.52        45.24       97.15       
C           13.84       50.34       99.53       
H           14.04802    50.83232    98.58003    
H           14.72       50.04       100.05      
H           13.37       51.12       100.19      
H           8.93        45.61       96.39       
H           8.95053     44.81845    97.97831    
H           10.2        44.45       96.77       
N           10.32       46.35       97.58       
C           11.17       48.23       98.49       
C           10.05       47.66       97.9        
C           16.58       46.44       100.95      
C           15.96       45.44       100.22      
S           15.62       47.83       100.91      
H           14.14       45.17       99.0        
H           16.43       44.44       100.09      
C           14.73       45.86       99.62       
C           14.41       47.15       99.86       
C           20.17       46.5        103.69      
C           19.67       45.37       103.02      
C           19.48       47.66       103.31      
N           18.31       44.07       101.73      
N           19.24       43.34       102.28      
N           20.08       44.08       103.04      
C           19.27       41.91       102.25      
H           19.71       48.59       103.87      
H           17.81       48.49       102.26      
H           19.26318    41.64404    101.19297   
H           20.16       41.57       102.77      
H           18.4474     41.54834    102.86695   
C           18.32       47.58       102.48      
C           18.58       45.31       102.11      
C           17.81       46.42       101.82      
C           22.15       46.27       107.08      
C           22.56       47.45       106.53      
S           21.08       45.4        105.98      
H           22.07       48.49       104.61      
H           23.23       48.13       107.02      
C           21.94       47.61       105.21      
C           21.15       46.59       104.78      
C           21.87       43.59       110.95      
C           22.04       44.83       110.38      
N           21.92       42.63       110.0       
C           22.22       43.31       108.74      
C           22.06       46.22       110.75      
O           22.14       46.81       111.76      
O           22.21       42.6        107.7       
C           21.7        48.21       109.46      
C           21.6        41.24       110.02      
H           22.53839    40.6855     110.02711   
H           20.87       41.1        110.81      
H           21.2        40.97       109.05      
H           21.09       48.43       108.56      
H           22.49756    48.9388     109.60439   
H           20.97       48.44       110.24      
N           22.26       46.84       109.5       
C           22.24       44.7        109.01      
C           22.27       45.92       108.49      
C           19.71       43.72       114.26      
C           20.49       42.6        114.24      
S           20.06       44.61       112.85      
H           22.11       41.66       112.96      
H           20.33       41.86       115.0       
C           21.43       42.46       113.17      
C           21.3        43.51       112.28      
C           16.93       45.57       117.06      
C           16.94       44.16       116.85      
C           17.86       46.26       116.3       
N           17.42       42.24       115.8       
N           16.37       42.15       116.62      
N           16.05       43.2        117.28      
C           15.31       41.28       116.4       
H           17.88       47.28       116.38      
H           19.46       46.21       114.97      
H           15.67344    40.30369    116.07932   
H           14.86       41.27       117.35      
H           14.66914    41.66312    115.60589   
C           18.75       45.59       115.45      
C           17.81       43.55       115.95      
C           18.76       44.28       115.17      
C           14.9        48.16       119.16      
C           14.53       46.94       119.54      
S           15.86       48.0        117.68      
H           15.16       44.75       119.21      
H           13.81       46.78       120.34      
C           15.27       45.85       118.99      
C           16.04       46.27       117.97      
C           11.86       51.14       121.6       
C           13.02       50.94       120.85      
N           11.43       49.87       121.97      
C           12.29       48.82       121.41      
C           14.16       51.67       120.22      
O           14.35       52.88       120.17      
O           12.13       47.63       121.59      
C           16.17       51.09       118.79      
C           10.24       49.42       122.7       
H           9.59337     48.85068    122.03228   
H           9.64        50.26       122.97      
H           10.5        48.87       123.6       
H           16.12       50.63       117.75      
H           17.05957    50.75552    119.32374   
H           16.08       52.14       118.71      
N           14.91       50.71       119.43      
C           13.28       49.53       120.56      
C           14.39       49.39       119.74      
C           10.0        54.58       122.74      
C           11.34       54.74       122.48      
S           9.79        52.84       122.66      
H           13.17       53.6        122.16      
H           11.8        55.71       122.64      
C           12.14       53.59       122.27      
C           11.44       52.43       122.17      
C           6.75        57.59       123.12      
C           6.51        56.25       123.37      
C           8.07        57.87       122.81      
N           7.03        54.12       123.83      
N           5.81        54.38       124.14      
N           5.43        55.65       123.93      
C           4.99        53.41       124.87      
H           8.39        58.83       122.45      
H           10.05       57.26       122.28      
H           5.26023     52.39306    124.58554   
H           5.12        53.62       125.88      
H           3.94759     53.50219    124.56508   
C           9.1         56.9        122.76      
C           7.6         55.28       123.37      
C           8.94        55.56       122.98      
C           3.79        60.19       123.03      
C           4.92        60.78       122.72      
S           4.02        58.46       123.04      
H           7.1         60.36       122.6       
H           4.89        61.83       122.52      
C           6.09        59.95       122.71      
C           5.76        58.66       122.98      
C           0.44        63.07       121.29      
C           0.87        62.13       122.2       
N           1.6         63.52       120.66      
C           2.78        62.9        121.16      
C           0.4         61.21       123.26      
O           -0.62       61.18       123.8       
O           3.88        63.11       120.78      
C           1.42        59.59       124.78      
C           1.86        64.65       119.85      
H           2.21268     64.3477     118.86393   
H           2.54        65.31       120.39      
H           0.9         65.28       119.72      
H           2.42        59.56       125.21      
H           1.10539     58.54829    124.71708   
H           0.77        60.1        125.46      
N           1.47        60.37       123.57      
C           2.24        61.86       122.05      
C           2.53        60.74       122.81      
C           -3.0        63.6        119.4       
C           -3.02       62.66       120.3       
S           -1.45       64.26       119.5       
H           -1.92       61.7        121.98      
H           -3.91       62.06       120.3       
C           -1.93       62.44       121.16      
C           -0.89       63.23       120.79      
C           -5.93       65.18       116.67      
C           -6.24       64.05       117.49      
C           -4.64       65.6        116.74      
N           -5.89       62.51       119.06      
N           -7.12       62.56       118.57      
N           -7.36       63.37       117.54      
C           -7.88       61.35       118.56      
H           -4.22       66.24       115.99      
H           -2.76       65.61       117.69      
H           -7.59396    60.7119     119.39613   
H           -8.89       61.71       118.51      
H           -7.73888    60.81376    117.62158   
C           -3.69       65.13       117.69      
C           -5.29       63.5        118.44      
C           -4.02       64.1        118.54      
C           -8.32       65.64       113.56      
C           -7.75       66.89       113.72      
S           -7.88       64.58       114.85      
H           -6.18       67.75       115.08      
H           -7.75       67.63       112.89      
C           -6.82       66.83       114.83      
C           -6.84       65.7        115.62      
C           -11.97      66.62       110.46      
C           -11.25      65.77       111.22      
N           -11.53      67.95       110.78      
C           -10.4       67.86       111.66      
C           -11.09      64.34       111.48      
O           -11.64      63.35       110.99      
O           -9.82       68.85       112.01      
C           -9.57       62.89       112.68      
C           -12.37      69.17       110.81      
H           -12.63796   69.37449    111.84657   
H           -13.38      68.95       110.38      
H           -11.9       69.96       110.27      
H           -9.42       62.85       113.73      
H           -8.67124    62.56068    112.15858   
H           -10.43      62.21       112.49      
N           -9.97       64.24       112.28      
C           -10.15      66.43       111.9       
C           -9.42       65.47       112.65      
C           -15.19      64.84       108.84      
C           -15.08      66.13       108.38      
S           -14.01      64.73       110.07      
H           -13.48      67.79       108.36      
H           -15.62      66.52       107.51      
C           -13.88      66.88       108.81      
C           -13.19      66.18       109.74      
C           -18.18      61.67       107.58      
C           -17.13      61.45       108.51      
C           -18.08      62.99       107.19      
N           -15.29      61.9        109.78      
N           -15.72      60.62       109.75      
N           -16.71      60.24       109.05      
C           -14.88      59.6        110.41      
H           -18.62      63.34       106.29      
H           -17.34      65.05       107.29      
H           -13.95011   60.09017    110.69834   
H           -15.33      59.27       111.32      
H           -14.69189   58.7752     109.72267   
C           -17.24      64.03       107.69      
C           -16.19      62.44       108.94      
C           -16.21      63.8        108.53      
C           -20.62      59.26       105.72      
C           -19.54      58.59       106.21      
S           -20.33      60.86       106.07      
H           -17.61      58.9        107.31      
H           -19.41      57.52       105.89      
C           -18.51      59.3        106.87      
C           -18.85      60.58       106.9       
C           -22.88      56.52       102.42      
C           -22.89      57.55       103.27      
N           -21.84      55.71       102.8       
C           -20.97      56.39       103.75      
C           -23.66      58.66       103.74      
O           -24.71      59.23       103.4       
O           -19.97      55.83       104.06      
C           -23.44      60.62       105.22      
C           -21.57      54.28       102.53      
H           -21.96947   53.75927    103.40027   
H           -22.0       53.95       101.55      
H           -20.53      54.18       102.46      
H           -22.71      61.41       105.29      
H           -23.87624   60.48844    106.21019   
H           -24.16      61.07       104.55      
N           -22.84      59.41       104.56      
C           -21.68      57.57       104.12      
C           -21.6       58.72       104.8       
C           -25.31      55.06       99.51       
C           -25.94      56.09       100.19      
S           -23.73      54.94       100.2       
H           -25.59      57.37       101.98      
H           -27.0       56.39       100.01      
C           -25.16      56.62       101.28      
C           -23.88      56.14       101.38      
C           -26.41      52.53       96.1        
C           -27.2       53.63       96.54       
C           -25.38      52.26       97.01       
N           -27.67      55.56       97.74       
N           -28.58      55.33       96.8        
N           -28.26      54.28       95.98       
C           -29.58      56.33       96.5        
H           -24.88      51.31       96.94       
H           -24.31      52.68       98.87       
H           -29.85748   56.86414    97.40873    
H           -29.29      57.09       95.71       
H           -30.51433   55.91238    96.12485    
C           -25.06      53.0        98.18       
C           -26.79      54.53       97.63       
C           -25.74      54.16       98.47       
C           -26.4       49.92       93.13       
C           -27.64      50.54       93.2        
S           -25.49      50.52       94.45       
H           -28.66      52.22       94.2        
H           -28.37      50.33       92.47       
C           -27.8       51.57       94.12       
C           -26.68      51.66       94.94       
C           -24.17      46.09       91.07       
C           -24.86      47.26       90.99       
N           -24.14      45.78       92.44       
C           -24.71      46.81       93.21       
C           -25.29      48.31       89.99       
O           -25.12      48.33       88.76       
O           -24.91      46.69       94.4        
C           -26.34      50.65       90.14       
C           -23.94      44.45       93.05       
H           -22.95259   44.37297    93.50519    
H           -24.63      44.27       93.84       
H           -24.14      43.6        92.45       
H           -26.02      51.52       90.69       
H           -27.39684   50.72141    89.88293    
H           -25.83      50.7        89.16       
N           -25.93      49.37       90.79       
C           -25.25      47.76       92.24       
C           -25.96      48.94       92.12       
C           -23.06      43.54       88.14       
C           -24.03      44.39       87.67       
S           -22.77      43.97       89.78       
H           -25.42      45.97       88.45       
H           -24.32      44.44       86.61       
C           -24.62      45.26       88.65       
C           -23.98      45.23       89.87       
C           -20.72      40.55       85.82       
C           -20.51      40.78       87.22       
C           -21.9       41.22       85.37       
N           -20.63      41.8        89.19       
N           -19.68      40.8        89.16       
N           -19.55      40.13       87.97       
C           -18.83      40.46       90.34       
H           -22.28      41.03       84.36       
H           -23.55      42.38       85.71       
H           -19.02708   41.17091    91.14241    
H           -19.11      39.47       90.6        
H           -17.7949    40.41071    90.00201    
C           -22.62      42.11       86.15       
C           -21.23      41.73       88.0        
C           -22.39      42.48       87.43       
C           -18.86      38.57       82.93       
C           -18.35      38.05       84.1        
S           -20.25      39.53       83.31       
H           -18.58      38.46       86.25       
H           -17.57      37.25       84.17       
C           -18.92      38.72       85.26       
C           -19.86      39.68       84.97       
C           -19.21      38.97       78.21       
C           -18.95      38.16       79.25       
N           -19.8       40.13       78.75       
C           -19.72      40.12       80.16       
C           -18.53      36.84       79.61       
O           -18.42      35.83       78.92       
O           -19.8       41.14       80.83       
C           -17.99      35.62       81.77       
C           -20.95      40.81       78.19       
H           -21.83053   40.65591    78.81371    
H           -21.29      40.46       77.24       
H           -20.76      41.88       78.06       
H           -18.69      35.34       82.57       
H           -16.95899   35.59881    82.12309    
H           -18.04      34.81       81.07       
N           -18.33      36.85       81.05       
C           -19.12      38.83       80.47       
C           -18.62      38.09       81.53       
C           -18.98      39.06       74.31       
C           -18.64      37.78       74.76       
S           -19.27      40.07       75.72       
H           -18.42      36.72       76.7        
H           -18.35      37.02       74.06       
C           -18.69      37.65       76.23       
C           -19.09      38.76       76.83       
C           -19.43      40.67       70.18       
C           -19.32      41.52       71.35       
C           -19.05      39.35       70.5        
N           -19.43      42.05       73.49       
N           -19.57      43.12       72.73       
N           -19.61      42.84       71.43       
C           -20.14      44.42       73.14       
H           -18.91      38.7        69.65       
H           -18.68      37.81       71.96       
H           -20.14      44.47618    74.22855    
H           -19.47      45.33       72.85       
H           -21.10793   44.59599    72.6707     
C           -18.9       38.85       71.84       
C           -19.22      40.98       72.64       
C           -19.07      39.61       72.95       
C           -20.5       41.18       66.39       
C           -20.43      42.38       67.07       
S           -20.11      39.95       67.58       
H           -19.82      43.26       69.06       
H           -20.71      43.35       66.65       
C           -20.03      42.34       68.44       
C           -19.79      41.08       68.83       
C           -21.22      38.73       62.36       
C           -21.46      39.83       63.12       
N           -20.54      37.84       63.18       
C           -20.14      38.45       64.48       
C           -22.07      41.15       63.05       
O           -22.71      41.67       62.13       
O           -19.37      37.92       65.27       
C           -22.13      43.2        64.43       
C           -19.88      36.59       62.83       
H           -18.8132    36.76183    62.6868     
H           -20.19      36.17       61.92       
H           -20.05      35.79       63.61       
H           -21.36      43.87       64.74       
H           -22.98517   43.30061    65.09833    
H           -22.32      43.55       63.48       
N           -21.66      41.83       64.23       
C           -20.74      39.78       64.35       
C           -20.88      40.97       65.0        
C           -23.43      37.78       59.31       
C           -22.07      37.52       59.09       
S           -23.6       38.61       60.81       
H           -20.17      37.76       60.19       
H           -21.59      37.24       58.15       
C           -21.26      37.84       60.23       
C           -21.92      38.42       61.19       
C           -26.81      37.39       56.33       
C           -27.01      37.32       57.75       
C           -25.48      37.38       56.05       
N           -26.48      37.56       59.9        
N           -27.76      37.28       59.74       
N           -28.19      37.17       58.45       
C           -28.61      37.36       60.92       
H           -25.23      37.34       55.0        
H           -23.47      37.56       56.51       
H           -28.92815   38.38675    61.10077    
H           -28.06      37.0        61.8        
H           -29.40761   36.62259    60.82971    
C           -24.47      37.49       56.96       
C           -25.95      37.53       58.69       
C           -24.56      37.63       58.33       
H           3.54        66.06       89.2        
H           -27.36      36.64       55.83       
