472

C           4.15        68.6        60.69       
C           4.09        67.9        59.51       
S           2.58        69.2        61.0        
H           2.59        67.3        58.02       
H           4.91        67.41       58.98       
C           2.82        67.92       58.9        
C           1.81        68.56       59.61       
C           8.71        68.3        61.98       
C           7.44        68.58       62.41       
N           8.64        67.46       60.88       
C           7.26        67.2        60.49       
C           6.65        69.04       63.57       
O           6.91        69.47       64.66       
O           6.88        66.55       59.55       
C           4.57        70.43       63.23       
C           9.52        66.42       60.42       
H           9.25721     65.51484    60.96748    
H           10.53       66.61       60.64       
H           9.45        66.39       59.36       
H           3.53        70.25       63.08       
H           4.91103     71.23284    62.57636    
H           4.69        70.61       64.35       
N           5.36        69.23       62.88       
C           6.53        68.12       61.42       
C           5.27        68.67       61.64       
C           12.29       68.54       63.64       
C           11.31       68.93       64.58       
S           11.49       68.45       62.07       
H           9.06        68.71       64.76       
H           11.62       68.99       65.64       
C           9.92        68.74       64.1        
C           9.86        68.45       62.78       
C           16.74       68.72       63.96       
C           16.08       67.98       62.99       
C           15.87       69.19       64.88       
N           14.43       67.11       61.75       
N           15.62       66.8        61.29       
N           16.64       67.31       61.93       
C           15.84       65.95       60.11       
H           16.33       69.71       65.75       
H           13.92       69.55       65.57       
H           14.8624     65.54448    59.84931    
H           16.27       66.55       59.34       
H           16.58481    65.18371    60.32485    
C           14.41       69.07       64.76       
C           14.64       67.85       62.83       
C           13.73       68.45       63.75       
C           20.75       68.86       63.81       
C           20.29       69.53       64.92       
S           19.35       68.42       62.87       
H           18.36       69.68       65.98       
H           20.89       69.87       65.79       
C           18.91       69.4        65.11       
C           18.21       68.82       64.11       
C           25.24       70.08       63.81       
C           24.31       69.16       63.31       
N           24.65       71.25       64.22       
C           23.23       70.99       64.35       
C           24.1        67.98       62.48       
O           24.79       67.08       61.95       
O           22.37       71.8        64.8        
C           21.99       66.58       62.02       
C           25.03       72.64       64.12       
H           24.59669    73.08729    63.22542    
H           26.07       72.68       64.02       
H           24.91       73.31       64.97       
H           21.08       66.86       61.56       
H           21.73902    65.86293    62.80161    
H           22.68       66.05       61.34       
N           22.66       67.78       62.6        
C           23.08       69.71       63.74       
C           22.12       68.81       63.37       
C           28.96       69.49       62.4        
C           29.0        70.33       63.5        
S           27.28       69.08       62.1        
H           27.66       71.14       65.09       
H           29.96       70.76       63.87       
C           27.73       70.58       64.11       
C           26.66       69.97       63.47       
C           32.08       67.15       60.3        
C           32.42       68.13       61.27       
C           30.76       66.98       60.08       
N           32.06       69.83       62.66       
N           33.39       69.51       62.45       
N           33.64       68.46       61.73       
C           34.51       70.36       62.89       
H           30.37       66.26       59.37       
H           28.76       67.53       60.42       
H           34.12438    71.15878    63.52352    
H           35.34       69.82       63.36       
H           35.03062    70.79996    62.03941    
C           29.76       67.77       60.79       
C           31.39       68.99       61.88       
C           30.02       68.79       61.71       
C           34.06       64.7        57.92       
C           34.81       64.83       59.05       
S           32.7        65.82       57.96       
H           34.63       65.73       61.05       
H           35.81       64.42       59.22       
C           34.13       65.64       60.03       
C           32.96       66.19       59.64       
C           37.19       62.58       55.0        
C           36.04       63.28       55.16       
N           37.81       62.39       56.22       
C           37.0        63.07       57.21       
C           34.92       63.8        54.4        
O           34.71       63.95       53.22       
O           37.38       63.0        58.43       
C           32.78       65.0        55.01       
C           38.94       61.58       56.61       
H           38.71051    60.52989    56.42919    
H           39.84       61.86       56.04       
H           39.28       61.79       57.6        
H           32.76       66.04       55.34       
H           31.89553    64.43911    55.31202    
H           32.85       65.16       53.91       
N           34.01       64.36       55.43       
C           35.79       63.56       56.53       
C           34.58       64.18       56.69       
C           37.27       60.3        51.82       
C           38.57       60.53       52.23       
S           36.2        61.08       52.93       
H           39.56       61.53       53.87       
H           39.48       60.0        51.86       
C           38.7        61.38       53.39       
C           37.5        61.88       53.77       
C           35.77       58.45       48.1        
C           35.19       58.11       49.35       
C           36.82       59.32       48.2        
N           34.91       58.11       51.55       
N           33.99       57.36       50.94       
N           34.15       57.27       49.62       
C           33.36       56.24       51.62       
H           37.26       59.64       47.23       
H           37.91       60.72       49.38       
H           33.38789    56.37944    52.70068    
H           32.32       56.29       51.28       
H           33.83277    55.309      51.30724    
C           37.27       59.88       49.38       
C           35.66       58.65       50.59       
C           36.74       59.54       50.62       
C           34.67       57.65       44.34       
C           34.47       56.54       45.12       
S           35.07       58.89       45.45       
H           34.79       55.91       47.2        
H           34.13       55.57       44.77       
C           34.83       56.65       46.47       
C           35.35       57.91       46.84       
C           33.24       56.5        39.84       
C           33.87       57.38       40.73       
N           32.89       55.41       40.64       
C           33.15       55.66       42.08       
C           34.61       58.62       40.74       
O           34.93       59.35       39.85       
O           32.95       54.84       42.88       
C           36.05       59.79       42.45       
C           32.36       54.08       40.21       
H           31.44844    53.80166    40.73885    
H           33.11       53.29       40.22       
H           32.11       54.11       39.15       
H           36.81       59.27       43.05       
H           35.72087    60.74877    42.85068    
H           36.68       60.04       41.55       
N           34.91       58.89       42.11       
C           33.81       56.95       42.15       
C           34.42       57.86       42.97       
C           34.29       56.71       36.06       
C           33.1        56.1        36.12       
S           34.75       57.32       37.63       
H           31.61       55.56       37.64       
H           32.54       55.87       35.18       
C           32.59       55.87       37.45       
C           33.4        56.56       38.39       
C           36.71       57.78       32.41       
C           35.59       56.92       32.34       
C           37.1        58.06       33.72       
N           33.97       55.56       33.18       
N           34.05       55.48       31.86       
N           35.09       56.12       31.37       
C           32.87       55.02       31.1        
H           38.03       58.55       33.93       
H           36.73       58.09       35.83       
H           32.08629    54.62814    31.74834    
H           32.51       55.84       30.5        
H           33.17921    54.32428    30.31995    
C           36.38       57.72       34.85       
C           34.94       56.51       33.57       
C           35.14       57.06       34.86       
C           38.47       58.59       29.03       
C           39.1        59.29       29.99       
S           37.27       57.56       29.66       
H           38.79       59.66       32.14       
H           39.84       60.05       29.86       
C           38.49       59.08       31.24       
C           37.52       58.12       31.27       
C           40.29       60.56       25.03       
C           39.51       59.63       25.6        
N           41.04       61.03       26.07       
C           40.64       60.65       27.39       
C           38.57       58.62       25.27       
O           38.03       58.3        24.26       
O           41.06       61.07       28.39       
C           37.53       56.83       26.53       
C           42.04       62.08       26.05       
H           41.63505    63.06345    26.28863    
H           42.59       62.06       25.16       
H           42.77       61.92       26.79       
H           36.64       56.87       27.16       
H           38.12166    55.97137    26.84748    
H           37.07       56.57       25.53       
N           38.25       58.08       26.56       
C           39.67       59.6        27.04       
C           38.8        58.72       27.63       
C           40.75       62.2        21.39       
C           39.64       61.46       21.5        
S           41.5        62.12       22.96       
H           38.58       60.15       22.91       
H           39.09       61.2        20.6        
C           39.42       60.79       22.73       
C           40.32       61.09       23.69       
C           42.62       64.56       18.17       
C           41.39       63.88       17.96       
C           43.09       64.48       19.42       
N           39.6        62.53       18.44       
N           39.58       63.03       17.23       
N           40.61       63.82       16.83       
C           38.39       62.89       16.36       
H           43.97       65.07       19.72       
H           42.99       63.58       21.49       
H           37.6373     62.43979    17.00718    
H           38.08       63.85       15.98       
H           38.60253    62.28073    15.48152    
C           42.48       63.64       20.48       
C           40.73       63.09       18.97       
C           41.37       62.9        20.25       
C           43.47       67.43       15.64       
C           44.61       67.11       16.34       
S           42.17       66.42       16.1        
H           45.34       65.35       17.55       
H           45.55       67.61       16.1        
C           44.47       65.92       17.06       
C           43.2        65.44       17.14       
C           44.81       71.62       13.73       
C           44.08       70.43       13.56       
N           45.26       71.67       15.01       
C           45.01       70.4        15.63       
C           43.31       69.63       12.66       
O           42.92       69.7        11.58       
O           45.5        70.25       16.72       
C           42.17       67.46       12.83       
C           45.42       72.93       15.86       
H           44.70884    72.97267    16.68494    
H           45.15       73.76       15.25       
H           46.42       73.06       16.29       
H           41.3        67.24       13.53       
H           42.72554    66.57414    12.5222     
H           41.65       67.87       11.96       
N           42.92       68.48       13.44       
C           44.18       69.65       14.74       
C           43.43       68.55       14.7        
C           46.02       74.36       11.06       
C           45.17       73.52       10.43       
S           46.05       73.98       12.77       
H           44.31       71.45       10.91       
H           45.04       73.57       9.36        
C           44.79       72.41       11.29       
C           45.14       72.52       12.62       
C           49.14       76.92       9.35        
C           48.55       77.2        10.6        
C           48.58       75.85       8.7         
N           47.17       76.88       12.39       
N           48.01       77.89       12.57       
N           48.93       78.1        11.55       
C           48.19       78.57       13.85       
H           48.99       75.48       7.79        
H           47.09       74.34       8.62        
H           47.49415    78.14553    14.57368    
H           49.15       78.42       14.18       
H           48.04563    79.64247    13.71938    
C           47.49       75.17       9.21        
C           47.52       76.41       11.16       
C           46.95       75.27       10.47       
C           52.46       78.85       8.38        
C           52.02       78.12       7.28        
S           51.3        78.68       9.65        
H           50.34       76.78       6.74        
H           52.58       78.03       6.34        
C           50.82       77.38       7.55        
C           50.35       77.53       8.82        
C           55.98       81.45       6.55        
C           55.41       81.03       7.67        
N           55.14       81.15       5.44        
C           53.91       80.53       5.87        
C           55.49       80.87       9.15        
O           56.19       81.28       10.04       
O           52.99       80.07       5.19        
C           54.23       79.62       10.89       
C           55.34       81.46       4.04        
H           55.95181    80.68645    3.57587     
H           54.42       81.52       3.48        
H           55.77       82.43       3.94        
H           53.74       78.68       10.88       
H           53.67939    80.27072    11.56933    
H           55.21       79.46       11.23       
N           54.35       80.11       9.5         
C           54.13       80.41       7.32        
C           53.5        79.83       8.41        
C           59.27       83.44       7.31        
C           59.16       83.13       5.97        
S           57.84       82.79       8.06        
H           57.76       82.32       4.42        
H           59.91       83.51       5.29        
C           57.97       82.48       5.47        
C           57.19       82.2        6.58        
C           62.18       85.68       9.82        
C           62.54       85.24       8.5         
C           60.92       85.35       10.24       
N           62.14       84.37       6.48        
N           63.38       84.79       6.62        
N           63.64       85.45       7.76        
C           64.45       84.82       5.6         
H           60.53       85.66       11.18       
H           59.05       84.31       9.8         
H           64.24848    83.97794    4.93787     
H           64.43       85.79       5.07        
H           65.40159    84.75749    6.12789     
C           60.05       84.51       9.4         
C           61.63       84.51       7.68        
C           60.38       84.1        8.11        
C           64.98       87.71       11.69       
C           64.19       87.11       12.64       
S           64.21       87.55       10.17       
H           62.44       85.7        12.68       
H           64.45       87.25       13.71       
C           63.13       86.29       12.1        
C           63.04       86.43       10.75       
C           69.16       88.29       13.91       
C           68.22       88.86       13.16       
N           68.55       87.26       14.57       
C           67.27       86.96       14.12       
C           67.93       89.95       12.26       
O           68.57       90.98       11.95       
O           66.6        86.03       14.53       
C           65.9        90.58       10.91       
C           69.13       86.56       15.65       
H           69.39399    85.53972    15.37174    
H           69.9        87.11       16.18       
H           68.34       86.41       16.36       
H           64.83       90.41       10.92       
H           66.20369    90.47154    9.86879     
H           66.27       91.51       11.34       
N           66.63       89.66       11.69       
C           67.11       87.96       13.04       
C           66.24       88.35       12.04       
C           73.05       89.17       14.24       
C           72.33       90.33       14.08       
S           71.93       87.77       14.22       
H           70.23       90.98       13.7        
H           72.78       91.31       14.01       
C           70.88       90.12       13.96       
C           70.49       88.77       14.17       
C           77.35       88.46       13.8        
C           76.52       87.53       14.42       
C           76.73       89.61       13.47       
N           74.55       86.51       14.9        
N           75.59       85.77       15.08       
N           76.78       86.28       14.72       
C           75.53       84.27       15.05       
H           77.21       90.46       12.93       
H           74.98       90.8        13.51       
H           74.69835    83.90749    15.65419    
H           75.5        83.97       13.97       
H           76.48233    83.8679     15.39566    
C           75.34       89.79       13.64       
C           75.1        87.7        14.51       
C           74.48       88.9        14.2        
C           81.21       87.56       13.44       
C           81.0        88.87       13.17       
S           79.66       86.84       13.68       
H           79.37       90.3        13.06       
H           81.78       89.58       13.08       
C           79.64       89.28       13.23       
C           78.77       88.3        13.58       
C           86.03       87.11       13.29       
C           84.78       86.58       13.49       
N           85.82       88.41       12.92       
C           84.4        88.73       12.78       
C           84.21       85.38       13.9        
O           84.68       84.3        14.17       
O           84.01       89.89       12.51       
C           81.88       84.65       14.43       
C           86.77       89.45       12.95       
H           86.86301    89.79343    13.98029    
H           86.52       90.16       12.15       
H           87.73       89.03       12.52       
H           80.97       84.61       13.93       
H           81.7701     84.63535    15.51435    
H           82.32       83.63       14.24       
N           82.77       85.64       13.93       
C           83.67       87.51       13.21       
C           82.48       86.93       13.49       
C           89.18       84.74       12.62       
C           89.56       85.88       13.27       
S           87.47       84.9        12.42       
H           88.69       87.81       14.05       
H           90.6        86.07       13.39       
C           88.49       86.83       13.6        
C           87.28       86.4        13.25       
C           91.19       81.23       10.96       
C           91.77       81.99       12.03       
C           89.97       81.66       10.55       
N           91.75       83.57       13.62       
N           92.94       82.91       13.57       
N           93.05       81.99       12.58       
C           94.08       83.34       14.3        
H           89.35       81.18       9.79        
H           88.47       83.12       10.59       
H           93.81798    83.95367    15.16189    
H           94.66       82.44       14.59       
H           94.75551    83.83586    13.60293    
C           89.4        82.84       11.06       
C           91.1        83.11       12.62       
C           89.87       83.57       12.14       
C           92.72       78.49       8.56        
C           93.64       78.76       9.58        
S           91.24       79.32       8.91        
H           93.79       80.15       11.35       
H           94.63       78.4        9.61        
C           93.16       79.68       10.57       
C           91.87       80.09       10.35       
C           94.67       75.18       5.55        
C           93.64       76.01       5.88        
N           95.67       75.23       6.53        
C           95.22       76.19       7.56        
C           92.31       76.46       5.39        
O           91.64       76.1        4.41        
O           95.83       76.32       8.62        
C           90.93       78.36       5.98        
C           97.0        74.76       6.51        
H           97.77107    75.50985    6.68685     
H           97.37       74.43       5.58        
H           97.07       73.87       7.09        
H           91.09       79.38       6.38        
H           89.91819    78.05026    6.24156     
H           90.99       78.35       4.86        
N           91.99       77.45       6.41        
C           93.94       76.68       7.09        
C           92.85       77.53       7.46        
C           95.27       72.72       2.5         
C           94.22       73.56       2.21        
S           95.79       73.02       4.09        
H           93.42       75.43       3.1         
H           93.66       73.56       1.31        
C           94.02       74.56       3.19        
C           94.84       74.4        4.3         
C           97.16       69.16       0.64        
C           96.15       69.86       -0.03       
C           97.5        69.7        1.82        
N           94.45       71.3        -0.34       
N           94.55       70.43       -1.38       
N           95.49       69.51       -1.19       
C           93.64       70.57       -2.47       
H           98.26       69.18       2.37        
H           97.45       71.18       3.26        
H           93.07267    69.64165    -2.53631    
H           94.21       70.83       -3.39       
H           92.93477    71.35128    -2.18653    
C           97.01       70.89       2.31        
C           95.45       71.01       0.48        
C           95.88       71.58       1.74        
H           0.74        68.22       59.52       
H           97.01       68.08       0.73        
