472

C           89.66       85.7        70.94       
C           89.3        85.89       69.6        
S           88.74       86.81       71.92       
H           88.08       87.33       68.45       
H           89.62       85.22       68.81       
C           88.37       86.98       69.44       
C           88.11       87.7        70.58       
C           93.01       82.18       70.41       
C           92.36       83.12       71.23       
N           92.47       82.32       69.12       
C           91.46       83.36       69.16       
C           92.28       83.61       72.62       
O           92.91       83.37       73.67       
O           90.82       83.53       68.17       
C           90.51       84.79       73.89       
C           93.11       82.03       67.87       
H           93.90458    82.75168    67.68047    
H           92.39       81.84       67.07       
H           93.63       81.08       67.89       
H           89.44       84.91       73.78       
H           90.89363    85.70796    74.33528    
H           90.76       83.98       74.61       
N           91.16       84.53       72.62       
C           91.39       83.89       70.53       
C           90.69       84.75       71.36       
C           95.67       80.06       72.25       
C           95.18       79.32       71.23       
S           95.01       81.66       72.17       
H           93.86       79.6        69.53       
H           95.49       78.3        71.09       
C           94.27       80.04       70.39       
C           93.93       81.28       70.89       
C           98.24       79.27       75.75       
C           98.21       78.45       74.65       
C           97.55       80.45       75.52       
N           97.32       77.53       72.72       
N           98.18       76.74       73.33       
N           98.75       77.15       74.5        
C           98.44       75.39       72.85       
H           97.74       81.31       76.2        
H           96.52       81.77       74.32       
H           98.18754    75.38279    71.78966    
H           99.51       75.14       73.02       
H           97.76449    74.69293    73.34586    
C           96.81       80.71       74.35       
C           97.32       78.62       73.54       
C           96.6        79.77       73.34       
C           100.12      79.86       79.16       
C           100.96      79.1        78.38       
S           98.64       80.16       78.3        
H           101.06      78.26       76.35       
H           102.05      78.98       78.61       
C           100.41      78.72       77.11       
C           99.15       79.16       76.95       
C           102.67      80.61       83.16       
C           101.58      81.0        82.36       
N           103.29      79.51       82.52       
C           102.77      79.37       81.22       
C           100.41      81.85       82.29       
O           100.03      82.75       83.03       
O           103.21      78.57       80.46       
C           98.49       82.2        80.65       
C           104.09      78.38       83.02       
H           103.49689   77.46592    83.04791    
H           104.39      78.54       84.07       
H           104.99      78.25       82.5        
H           97.68       81.54       80.39       
H           98.64517    83.00404    79.9306     
H           98.08       82.73       81.53       
N           99.73       81.49       81.05       
C           101.58      80.21       81.18       
C           100.39      80.4        80.47       
C           103.75      81.7        86.86       
C           102.72      82.47       86.38       
S           104.23      80.6        85.54       
H           101.81      82.97       84.4        
H           102.33      83.34       86.86       
C           102.47      82.31       84.96       
C           103.11      81.26       84.38       
C           105.87      82.46       90.65       
C           106.27      81.51       89.74       
C           104.66      83.06       90.23       
N           106.25      80.23       87.93       
N           107.22      79.93       88.78       
N           107.38      80.75       89.8        
C           108.34      79.09       88.48       
H           104.24      83.89       90.76       
H           103.16      83.41       88.82       
H           108.21208   78.83416    87.4282     
H           109.14      79.67       88.69       
H           108.27571   78.1685     89.05862    
C           103.99      82.84       89.03       
C           105.6       81.25       88.47       
C           104.39      81.92       88.11       
C           108.27      83.42       93.72       
C           107.11      84.07       93.83       
S           108.19      82.37       92.42       
H           105.2       84.12       92.75       
H           106.89      84.85       94.6        
C           106.21      83.77       92.8        
C           106.61      82.84       91.85       
C           112.16      81.65       95.51       
C           110.93      82.25       95.68       
N           112.3       81.35       94.17       
C           111.3       82.01       93.35       
C           110.11      82.75       96.75       
O           110.28      82.89       97.95       
O           111.35      82.22       92.21       
C           107.79      83.43       96.79       
C           113.02      80.16       93.56       
H           112.34219   79.31103    93.64901    
H           113.27      80.27       92.53       
H           114.04      79.99       94.0        
H           106.9       83.1        96.25       
H           107.58116   84.40218    97.23648    
H           107.94      82.65       97.57       
N           109.03      83.32       96.03       
C           110.42      82.58       94.38       
C           109.28      83.22       94.66       
C           113.69      79.83       98.68       
C           114.69      80.13       97.74       
S           112.25      80.51       98.06       
H           114.94      80.9        95.71       
H           115.62      79.55       97.85       
C           114.29      80.73       96.55       
C           112.94      81.09       96.59       
C           113.85      76.9        102.04      
C           112.77      77.77       101.88      
C           114.87      77.06       101.14      
N           111.59      79.44       100.99      
N           110.93      78.8        101.93      
N           111.67      77.87       102.62      
C           109.62      79.2        102.53      
H           115.73      76.39       101.15      
H           115.74      78.0        99.52       
H           109.10779   79.8133     101.78865   
H           109.13      78.24       102.63      
H           109.81813   79.81561    103.40742   
C           114.85      78.11       100.1       
C           112.78      78.84       100.87      
C           113.81      79.02       99.98       
C           114.3       73.4        103.85      
C           113.36      74.11       104.56      
S           114.99      74.5        102.71      
H           112.08      75.95       104.28      
H           112.83      73.68       105.34      
C           112.97      75.38       103.98      
C           113.86      75.8        103.04      
C           115.04      69.28       106.34      
C           115.24      70.0        105.21      
N           114.48      70.15       107.29      
C           114.12      71.42       106.69      
C           115.86      69.93       103.86      
O           116.5       69.13       103.27      
O           113.63      72.37       107.26      
C           116.49      71.63       102.28      
C           114.1       69.96       108.7       
H           113.01078   69.93878    108.73536   
H           114.46      70.77       109.36      
H           114.48      69.0        109.18      
H           116.72      72.65       102.37      
H           116.18968   71.40118    101.25748   
H           117.3       71.06       102.56      
N           115.57      71.25       103.3       
C           114.65      71.34       105.32      
C           114.79      72.06       104.15      
C           116.67      65.7        106.65      
C           115.58      65.73       107.47      
S           116.94      67.22       105.87      
H           114.15      67.24       108.13      
H           115.25      64.89       108.13      
C           115.01      67.01       107.49      
C           115.51      67.92       106.54      
C           118.76      62.1        105.4       
C           117.78      62.03       106.39      
C           119.12      63.34       105.1       
N           116.14      62.8        107.7       
N           116.16      61.48       107.57      
N           117.19      60.94       106.94      
C           115.17      60.6        108.25      
H           119.85      63.44       104.31      
H           118.81      65.36       104.98      
H           114.45266   61.35285    108.57671   
H           114.72      59.92       107.55      
H           115.65806   60.05616    109.05879   
C           118.48      64.48       105.49      
C           117.11      63.21       106.83      
C           117.46      64.49       106.36      
C           118.89      59.47       102.69      
C           120.19      59.99       102.79      
S           117.96      60.15       103.97      
H           121.29      61.58       104.0       
H           120.92      59.87       102.03      
C           120.37      60.92       103.85      
C           119.29      61.02       104.63      
C           119.27      56.19       99.1        
C           118.48      56.96       99.95       
N           120.64      56.5        99.29       
C           120.69      57.44       100.39      
C           117.09      57.31       100.32      
O           116.07      57.06       99.81       
O           121.73      57.85       100.84      
C           115.94      58.78       101.79      
C           121.72      56.33       98.45       
H           121.69858   56.96545    97.56465    
H           121.77      55.27       98.08       
H           122.69      56.51       99.01       
H           116.09      59.84       102.09      
H           115.45158   58.21975    102.58728   
H           115.35      58.97       100.88      
N           117.18      58.23       101.36      
C           119.28      57.8        100.79      
C           118.51      58.56       101.66      
C           118.06      53.35       96.79       
C           117.1       54.34       96.75       
S           119.46      53.93       97.57       
H           116.97      56.39       97.69       
H           116.1       54.14       96.31       
C           117.53      55.54       97.44       
C           118.78      55.46       97.98       
C           118.12      49.54       94.44       
C           119.08      49.77       95.46       
C           117.28      50.62       94.26       
N           119.93      50.84       97.27       
N           120.53      49.69       96.98       
N           120.02      48.97       96.03       
C           121.71      49.26       97.7        
H           116.47      50.56       93.55       
H           116.43      52.52       94.76       
H           122.0847    50.10839    98.27266    
H           121.43      48.52       98.43       
H           122.53142   48.87713    97.09438    
C           117.25      51.84       95.03       
C           119.03      50.96       96.29       
C           118.09      52.08       96.09       
C           118.03      45.86       93.07       
C           117.43      46.63       92.16       
S           118.64      46.88       94.36       
H           116.83      48.71       91.99       
H           117.07      46.23       91.18       
C           117.35      47.98       92.57       
C           118.0       48.29       93.67       
C           119.14      42.03       90.48       
C           118.73      42.52       91.7        
N           119.13      43.0        89.57       
C           119.01      44.29       90.22       
C           118.48      42.15       93.03       
O           118.45      41.07       93.57       
O           119.06      45.29       89.55       
C           117.38      43.36       94.85       
C           118.63      42.84       88.18       
H           117.55353   43.00729    88.14363    
H           118.88      41.87       87.84       
H           119.11      43.57       87.52       
H           116.57      44.11       94.78       
H           117.97544   43.56583    95.73949    
H           116.98      42.34       94.81       
N           118.22      43.43       93.67       
C           118.71      43.91       91.6        
C           118.39      44.48       92.78       
C           120.75      38.69       89.16       
C           120.21      38.46       90.42       
S           120.6       40.39       88.74       
H           119.14      39.72       91.91       
H           120.28      37.5        90.91       
C           119.63      39.65       90.93       
C           119.66      40.75       90.12       
C           123.68      36.54       86.73       
C           123.29      36.06       88.05       
C           123.01      37.65       86.37       
N           122.09      36.09       89.94       
N           123.06      35.11       89.83       
N           123.74      35.01       88.68       
C           123.54      34.42       91.0        
H           123.31      38.1        85.42       
H           121.48      39.13       86.6        
H           123.1913    34.93237    91.89665    
H           123.15      33.42       90.97       
H           124.62389   34.46279    91.10696    
C           121.95      38.32       87.11       
C           122.33      36.8        88.85       
C           121.65      37.96       88.37       
C           126.55      34.44       84.98       
C           125.9       35.18       84.07       
S           125.88      34.83       86.53       
H           124.38      36.7        83.85       
H           126.26      35.06       83.08       
C           124.94      36.08       84.52       
C           124.76      35.98       85.91       
C           129.03      31.31       82.42       
C           128.78      31.88       83.56       
N           128.42      32.09       81.41       
C           127.64      33.15       81.95       
C           129.14      31.72       84.99       
O           129.83      30.93       85.62       
O           126.99      33.94       81.25       
C           128.15      32.64       87.07       
C           128.48      32.02       80.0        
H           127.58901   31.53652    79.5994     
H           128.6       33.04       79.56       
H           129.38      31.48       79.64       
H           127.17      32.61       87.51       
H           128.81668   33.40089    87.47581    
H           128.52      31.65       87.38       
N           128.24      32.63       85.62       
C           127.84      32.96       83.42       
C           127.52      33.46       84.66       
C           131.3       28.17       81.71       
C           131.82      28.91       82.79       
S           129.87      28.99       81.12       
H           131.4       30.77       83.9        
H           132.63      28.45       83.45       
C           131.12      30.11       83.08       
C           130.08      30.33       82.18       
C           132.86      24.34       80.18       
C           132.24      25.27       79.32       
C           132.8       24.72       81.5        
N           131.54      27.35       78.62       
N           131.7       26.51       77.65       
N           132.08      25.31       77.99       
C           131.93      26.99       76.25       
H           133.13      24.03       82.25       
H           132.23      26.16       83.01       
H           131.31649   27.87924    76.10524    
H           132.94      27.12       76.0        
H           131.5636    26.2641     75.5241     
C           132.25      25.91       81.94       
C           131.85      26.63       79.73       
C           131.78      26.92       81.1        
C           134.58      20.77       79.86       
C           134.26      21.22       78.61       
S           134.33      22.09       80.93       
H           132.95      22.87       77.7        
H           134.31      20.55       77.76       
C           133.51      22.43       78.55       
C           133.46      23.03       79.78       
C           137.76      17.14       79.08       
C           136.97      17.85       79.93       
N           137.67      17.71       77.81       
C           136.72      18.83       77.9        
C           136.42      17.87       81.26       
O           136.72      17.33       82.29       
O           136.48      19.52       76.88       
C           134.81      19.24       82.64       
C           137.63      17.06       76.48       
H           138.51284   17.36864    75.92015    
H           137.64      16.0        76.72       
H           136.76      17.3        75.9        
H           133.8       19.61       82.36       
H           135.27875   19.92847    83.34312    
H           134.6       18.24       83.01       
N           135.58      19.02       81.41       
C           136.28      18.93       79.28       
C           135.42      19.62       80.14       
C           140.01      14.02       79.18       
C           139.21      13.99       80.3        
S           139.78      15.47       78.33       
H           137.52      15.21       81.12       
H           139.3       13.12       81.01       
C           138.27      15.04       80.37       
C           138.38      15.92       79.31       
C           143.95      11.88       79.17       
C           143.36      12.46       78.02       
C           143.1       11.88       80.25       
N           141.86      13.68       76.76       
N           142.99      13.43       76.12       
N           143.85      12.77       76.8        
C           143.03      13.24       74.65       
H           143.29      11.35       81.16       
H           141.21      12.37       81.14       
H           142.40699   14.01001    74.19499    
H           144.1       13.38       74.42       
H           142.61656   12.308      74.26459    
C           141.82      12.52       80.22       
C           142.07      13.09       78.0        
C           141.24      13.21       79.14       
C           147.85      11.23       78.88       
C           147.39      10.6        80.02       
S           146.53      12.08       78.19       
H           145.42      10.28       81.03       
H           148.07      9.99        80.52       
C           145.99      10.72       80.2        
C           145.36      11.51       79.29       
C           152.33      12.28       79.96       
C           151.45      12.07       79.0        
N           151.82      11.86       81.14       
C           150.48      11.24       80.97       
C           151.21      12.14       77.56       
O           151.86      12.54       76.62       
O           149.87      10.64       81.82       
C           149.22      12.04       76.09       
C           151.98      12.44       82.47       
H           151.25714   13.24791    82.58339    
H           152.93      12.91       82.48       
H           152.03      11.74       83.27       
H           148.42      12.67       76.15       
H           148.88559   11.12401    75.60293    
H           149.95      12.5        75.44       
N           149.83      11.82       77.37       
C           150.24      11.52       79.57       
C           149.26      11.51       78.61       
C           155.99      13.88       80.18       
C           155.34      14.24       79.05       
S           154.85      12.95       81.08       
H           153.54      13.77       77.92       
H           155.72      15.07       78.46       
C           154.11      13.62       78.79       
C           153.61      12.91       79.87       
C           159.69      15.37       82.12       
C           159.29      15.8        80.82       
C           158.86      14.39       82.65       
N           157.93      16.09       79.1        
N           159.06      16.77       79.04       
N           159.88      16.74       79.99       
C           159.39      17.46       77.78       
H           159.12      13.96       83.64       
H           157.25      13.03       82.45       
H           158.44529   17.60481    77.25593    
H           159.8       18.49       78.05       
H           160.05757   16.87312    77.14911    
C           157.73      13.82       81.96       
C           158.08      15.39       80.24       
C           157.24      14.34       80.78       
C           162.3       16.5        84.87       
C           162.5       17.24       83.76       
S           160.96      15.46       84.52       
H           161.7       17.43       81.61       
H           163.24      17.96       83.75       
C           161.66      16.95       82.63       
C           160.71      15.98       82.92       
C           163.78      19.07       88.57       
C           163.53      17.75       88.08       
N           163.58      19.91       87.54       
C           163.28      19.32       86.31       
C           163.45      16.35       88.4        
O           163.56      15.77       89.51       
O           163.2       19.88       85.26       
C           162.87      14.26       87.06       
C           163.3       21.37       87.47       
H           162.23146   21.56106    87.37093    
H           163.91      21.69       86.53       
H           163.8       21.94       88.25       
H           163.06      14.03       86.0        
H           161.89815   13.86023    87.34949    
H           163.7       13.8        87.67       
N           162.93      15.72       87.17       
C           163.2       17.88       86.65       
C           162.65      16.69       86.21       
C           164.31      20.51       92.25       
C           164.5       19.12       92.25       
S           164.2       21.03       90.54       
H           164.25      17.4        91.02       
H           164.72      18.55       93.14       
C           164.26      18.5        90.99       
C           164.06      19.38       89.95       
C           164.61      23.6        95.46       
C           164.13      23.87       94.13       
C           165.12      22.33       95.52       
N           163.43      23.5        92.04       
N           163.21      24.77       92.46       
N           163.6       25.04       93.66       
C           162.08      25.47       91.88       
H           165.63      22.06       96.41       
H           165.5       20.4        94.74       
H           161.2709    25.63886    92.5906     
H           161.81      24.82       91.04       
H           162.45415   26.32623    91.31877    
C           165.06      21.35       94.48       
C           164.0       22.88       93.1        
C           164.42      21.53       93.25       
H           87.97       88.8        70.6        
H           164.14      24.16       96.23       
