472

C           37.54       74.69       14.17       
C           37.05       74.0        13.14       
S           37.79       76.38       13.78       
H           36.8        74.32       10.98       
H           36.83       73.0        13.2        
C           37.04       74.78       11.99       
C           37.27       76.1        12.13       
C           36.72       71.56       17.76       
C           37.43       72.67       17.26       
N           35.95       71.08       16.68       
C           35.92       72.03       15.58       
C           38.36       73.71       17.62       
O           38.96       73.99       18.66       
O           35.35       71.78       14.61       
C           39.98       75.01       16.1        
C           35.44       69.78       16.46       
H           34.3502     69.79463    16.47463    
H           35.8        69.1        17.28       
H           35.88       69.4        15.48       
H           39.7        76.01       15.67       
H           40.69021    74.42174    15.51892    
H           40.48       75.09       17.07       
N           38.69       74.36       16.35       
C           36.97       72.96       15.93       
C           37.64       74.12       15.5        
C           36.3        70.02       21.31       
C           37.4        70.78       21.33       
S           35.61       70.1        19.7        
H           38.5        72.05       19.93       
H           37.95       71.06       22.26       
C           37.67       71.35       20.06       
C           36.81       71.05       19.08       
C           34.17       68.01       24.62       
C           35.52       68.48       24.85       
C           33.62       68.23       23.35       
N           37.5        69.37       24.22       
N           37.42       68.9        25.5        
N           36.34       68.32       25.9        
C           38.36       69.34       26.48       
H           32.62       67.93       23.14       
H           33.83       68.93       21.35       
H           38.83051    70.18691    25.98054    
H           37.86       69.58       27.38       
H           39.09732    68.55444    26.64538    
C           34.31       68.95       22.38       
C           36.24       69.18       23.76       
C           35.65       69.33       22.47       
C           31.58       66.76       27.24       
C           32.81       66.5        27.72       
S           31.68       67.46       25.64       
H           34.83       66.61       27.11       
H           32.89       65.96       28.67       
C           33.82       66.85       26.87       
C           33.4        67.29       25.66       
C           28.99       66.77       31.24       
C           28.98       66.79       29.86       
N           30.33       66.66       31.63       
C           31.26       66.93       30.51       
C           28.11       66.88       28.72       
O           26.9        66.83       28.54       
O           32.44       67.06       30.7        
C           28.48       66.98       26.27       
C           30.93       66.24       32.91       
H           31.31346    65.22453    32.81058    
H           30.29       66.16       33.74       
H           31.65       66.96       33.16       
H           29.17       66.51       25.63       
H           28.19128    67.9472     25.85858    
H           27.57       66.39       26.33       
N           29.05       67.01       27.62       
C           30.39       66.79       29.37       
C           30.4        66.85       28.02       
C           25.99       66.87       33.8        
C           25.55       66.34       32.56       
S           27.69       67.31       33.71       
H           26.43       65.89       30.59       
H           24.52       66.14       32.39       
C           26.6        66.25       31.6        
C           27.83       66.58       32.1        
C           23.63       66.68       37.55       
C           24.81       67.42       37.47       
C           23.31       66.07       36.37       
N           26.44       68.65       36.47       
N           26.22       69.06       37.74       
N           25.29       68.36       38.38       
C           26.54       70.4        38.25       
H           22.31       65.48       36.29       
H           23.69       65.58       34.28       
H           27.28461    70.81058    37.56803    
H           25.63       71.01       38.14       
H           26.90159    70.42127    39.27806    
C           24.06       66.1        35.15       
C           25.57       67.62       36.24       
C           25.28       66.85       35.09       
C           20.73       66.46       40.33       
C           21.87       66.88       40.91       
S           21.11       66.2        38.68       
H           23.88       67.65       40.38       
H           21.91       67.23       41.91       
C           22.98       67.07       40.05       
C           22.79       66.66       38.8        
C           17.72       65.77       44.08       
C           18.03       65.74       42.77       
N           18.91       66.05       44.69       
C           19.9        66.34       43.69       
C           17.33       65.65       41.46       
O           16.18       65.53       41.22       
O           21.02       66.7        44.06       
C           18.2        64.66       39.35       
C           19.29       66.14       46.12       
H           18.83879    67.05674    46.49959    
H           18.94       65.32       46.82       
H           20.38       66.16       46.26       
H           19.14       64.14       39.07       
H           17.59489    65.08285    38.54804    
H           17.72       63.82       39.83       
N           18.4        65.67       40.39       
C           19.36       66.06       42.4        
C           19.58       66.03       41.0        
C           14.03       65.89       45.18       
C           14.8        65.39       46.27       
S           15.03       66.34       43.84       
H           17.0        64.94       46.7        
H           14.39       65.13       47.21       
C           16.25       65.34       45.99       
C           16.46       65.74       44.7        
C           9.75        67.04       45.07       
C           10.25       66.03       45.92       
C           10.69       67.5        44.11       
N           11.79       64.57       46.82       
N           10.57       64.34       47.27       
N           9.67        65.3        46.89       
C           10.31       63.22       48.15       
H           10.4        68.27       43.34       
H           12.83       67.61       43.56       
H           11.21206    62.88877    48.66446    
H           9.48        63.49       48.71       
H           9.88007     62.38881    47.59109    
C           12.11       67.13       44.24       
C           11.64       65.61       45.94       
C           12.6        66.23       45.14       
C           5.99        68.06       44.13       
C           6.06        66.89       44.78       
S           7.64        68.65       44.01       
H           7.68        65.5        45.47       
H           5.14        66.27       45.1        
C           7.36        66.43       45.02       
C           8.38        67.3        44.82       
C           1.44        67.64       42.87       
C           2.58        68.42       43.02       
N           2.03        66.34       42.84       
C           3.42        66.27       43.01       
C           2.94        69.84       43.02       
O           2.21        70.88       42.95       
O           4.06        65.22       42.89       
C           4.84        71.03       44.01       
C           1.44        65.08       42.55       
H           1.22983     64.60168    43.50663    
H           2.07        64.5        41.84       
H           0.51        65.31       42.14       
H           5.95        71.06       43.81       
H           4.74774     71.05129    45.09588    
H           4.35        71.92       43.67       
N           4.3         69.81       43.47       
C           3.79        67.65       43.18       
C           4.81        68.52       43.51       
C           -2.46       68.19       43.08       
C           -1.88       69.29       42.58       
S           -1.25       66.93       43.27       
H           0.19        69.94       41.87       
H           -2.46       70.25       42.61       
C           -0.47       69.15       42.29       
C           0.05        67.96       42.64       
C           -6.67       67.23       44.01       
C           -6.21       68.58       43.92       
C           -5.7        66.25       43.87       
N           -4.76       70.27       43.51       
N           -6.01       70.64       43.77       
N           -6.96       69.72       43.96       
C           -6.32       71.98       44.08       
H           -5.95       65.18       43.91       
H           -3.64       65.72       43.3        
H           -5.40631    72.55452    44.23228    
H           -6.86       72.41       43.32       
H           -6.90898    72.03677    44.99541    
C           -4.29       66.62       43.57       
C           -4.88       68.92       43.57       
C           -3.86       67.92       43.4        
C           -9.98       65.3        44.83       
C           -10.35      66.62       44.56       
S           -8.36       65.09       44.34       
H           -9.32       68.43       43.76       
H           -11.39      67.09       44.5        
C           -9.22       67.49       44.27       
C           -8.04       66.81       44.19       
C           -14.17      63.3        45.91       
C           -12.88      63.11       45.56       
N           -14.45      64.65       45.91       
C           -13.29      65.39       45.72       
C           -11.93      62.09       45.26       
O           -12.0       60.89       45.22       
O           -13.19      66.62       45.97       
C           -9.62       62.08       44.33       
C           -15.78      65.3        45.97       
H           -15.84326   65.96074    45.10541    
H           -15.89      65.74       46.94       
H           -16.54      64.6        45.86       
H           -8.7        62.63       44.46       
H           -9.83358    61.83082    43.29058    
H           -9.56       61.25       44.94       
N           -10.73      62.82       44.99       
C           -12.24      64.41       45.42       
C           -10.93      64.22       45.15       
C           -16.88      60.66       46.83       
C           -16.14      60.17       45.8        
S           -16.37      62.26       47.14       
H           -14.21      60.66       44.84       
H           -16.29      59.19       45.39       
C           -15.04      61.01       45.47       
C           -15.12      62.29       46.01       
C           -20.7       59.15       48.29       
C           -19.94      59.99       49.13       
C           -20.13      58.85       47.09       
N           -18.29      61.42       49.49       
N           -19.27      61.49       50.42       
N           -20.2       60.6        50.35       
C           -19.28      62.55       51.45       
H           -20.61      58.23       46.38       
H           -18.53      58.98       45.7        
H           -18.43431   63.20381    51.2368     
H           -20.27      63.04       51.47       
H           -19.20269   62.13532    52.45507    
C           -18.87      59.32       46.66       
C           -18.69      60.48       48.66       
C           -18.09      60.14       47.45       
C           -24.59      57.95       48.5        
C           -24.07      58.06       49.75       
S           -23.21      58.18       47.42       
H           -22.35      58.97       50.71       
H           -24.65      57.97       50.71       
C           -22.76      58.61       49.78       
C           -22.03      58.58       48.59       
C           -29.23      56.93       49.08       
C           -28.19      57.13       48.2        
N           -28.65      56.84       50.34       
C           -27.2       56.85       50.3        
C           -27.85      57.39       46.84       
O           -28.58      57.45       45.84       
O           -26.51      56.58       51.28       
C           -25.76      57.95       45.54       
C           -29.2       57.27       51.56       
H           -29.44993   56.3883     52.15012    
H           -30.16      57.8        51.44       
H           -28.6       57.98       52.02       
H           -24.81      57.54       45.44       
H           -25.65529   59.02501    45.39341    
H           -26.38      57.55       44.71       
N           -26.41      57.62       46.84       
C           -26.91      57.24       48.91       
C           -25.88      57.56       48.11       
C           -33.14      56.92       48.77       
C           -32.65      57.49       47.66       
S           -31.84      56.52       49.84       
H           -30.6       57.82       46.9        
H           -33.32      57.89       46.88       
C           -31.23      57.42       47.62       
C           -30.62      57.06       48.77       
C           -37.17      56.36       50.32       
C           -36.93      57.27       49.26       
C           -36.04      55.73       50.86       
N           -35.69      58.44       47.78       
N           -37.0       58.58       47.59       
N           -37.8       57.99       48.46       
C           -37.48      59.4        46.43       
H           -36.07      55.04       51.68       
H           -34.0       55.21       50.59       
H           -36.60916   59.77832    45.89464    
H           -38.08      58.82       45.77       
H           -38.12526   60.22762    46.72458    
C           -34.77      55.81       50.19       
C           -35.64      57.48       48.75       
C           -34.49      56.7        49.2        
C           -40.61      55.49       52.22       
C           -40.64      56.74       51.67       
S           -39.0       54.88       51.88       
H           -39.41      58.09       50.33       
H           -41.55      57.36       51.73       
C           -39.51      57.12       50.85       
C           -38.5       56.25       50.96       
C           -42.71      51.91       54.7        
C           -42.83      52.98       53.9        
N           -41.32      51.59       54.73       
C           -40.6       52.43       53.84       
C           -43.79      53.85       53.3        
O           -45.0       53.85       53.44       
O           -39.4       52.27       53.6        
C           -43.8       55.6        51.53       
C           -40.55      50.61       55.43       
H           -40.48038   49.72578    54.79643    
H           -39.59      50.97       55.64       
H           -41.0       50.39       56.39       
H           -43.19      56.11       50.76       
H           -44.55979   56.23089    51.9913     
H           -44.33      54.87       50.89       
N           -43.07      54.78       52.52       
C           -41.58      53.45       53.41       
C           -41.69      54.62       52.71       
C           -45.48      49.87       56.75       
C           -45.82      51.2        56.6        
S           -43.84      49.62       56.09       
H           -44.99      53.06       55.79       
H           -46.86      51.57       56.84       
C           -44.87      52.0        55.93       
C           -43.7       51.32       55.59       
C           -47.86      46.7        58.89       
C           -46.68      46.44       58.15       
C           -48.13      48.03       58.88       
N           -44.78      46.88       56.97       
N           -44.97      45.58       57.29       
N           -46.12      45.29       57.93       
C           -44.26      44.45       56.66       
H           -49.06      48.31       59.39       
H           -47.95      50.04       58.3        
H           -43.25554   44.74583    56.35729    
H           -44.28      43.68       57.42       
H           -44.90099   44.11894    55.84291    
C           -47.45      49.06       58.12       
C           -45.82      47.44       57.54       
C           -46.26      48.83       57.5        
C           -50.34      44.26       60.86       
C           -49.87      43.64       59.76       
S           -49.73      45.93       60.82       
H           -48.49      43.85       58.17       
H           -49.89      42.58       59.69       
C           -48.97      44.37       59.0        
C           -48.79      45.69       59.38       
C           -54.07      41.73       62.32       
C           -53.06      42.65       62.64       
N           -53.75      41.17       61.1        
C           -52.52      41.78       60.58       
C           -52.54      43.53       63.68       
O           -52.89      43.67       64.84       
O           -51.96      41.36       59.56       
C           -50.86      45.31       63.89       
C           -54.33      40.08       60.27       
H           -53.99222   39.09541    60.59341    
H           -55.42      40.17       60.26       
H           -54.07      40.19       59.22       
H           -50.62      46.25       63.35       
H           -49.91446   45.02069    64.34866    
H           -51.55      45.65       64.66       
N           -51.5       44.26       63.07       
C           -52.17      42.74       61.57       
C           -51.32      43.75       61.78       
C           -57.18      40.25       64.26       
C           -56.41      40.96       65.07       
S           -56.47      40.34       62.7        
H           -54.52      42.14       65.18       
H           -56.64      41.02       66.15       
C           -55.25      41.55       64.53       
C           -55.05      41.24       63.19       
C           -60.53      37.52       65.19       
C           -59.64      37.98       66.21       
C           -60.21      37.97       63.9        
N           -57.99      39.23       67.06       
N           -58.7       38.57       67.97       
N           -59.72      37.88       67.53       
C           -58.47      38.64       69.42       
H           -60.8       37.6        63.05       
H           -59.1       39.31       62.56       
H           -57.51711   39.1473     69.57082    
H           -59.27      39.16       69.98       
H           -58.40655   37.65304    69.87823    
C           -59.19      38.88       63.6        
C           -58.62      38.93       65.88       
C           -58.3       39.36       64.54       
C           -63.28      34.75       65.07       
C           -62.86      34.85       66.37       
S           -62.48      35.96       64.11       
H           -61.42      36.08       67.53       
H           -63.25      34.28       67.11       
C           -61.89      35.87       66.57       
C           -61.56      36.54       65.45       
C           -65.99      32.45       61.92       
C           -65.89      33.09       63.19       
N           -64.79      32.72       61.32       
C           -63.82      33.45       62.1        
C           -66.65      33.32       64.42       
O           -67.76      33.19       64.81       
O           -62.64      33.74       61.81       
C           -65.96      34.03       66.72       
C           -64.18      32.02       60.27       
H           -64.31509   32.53194    59.31723    
H           -64.62      31.05       60.13       
H           -63.14      31.9        60.48       
H           -65.61      34.99       67.0        
H           -65.73543   33.14577    67.3165     
H           -67.04      34.26       66.76       
N           -65.64      33.83       65.3        
C           -64.58      33.52       63.36       
C           -64.43      34.0        64.66       
C           -69.09      30.09       61.57       
C           -68.53      30.2        60.37       
S           -68.1       30.83       62.79       
H           -66.88      31.34       59.37       
H           -68.93      29.73       59.52       
C           -67.45      31.11       60.33       
C           -67.13      31.62       61.53       
C           -72.13      27.06       62.97       
C           -71.62      28.15       63.79       
C           -71.36      27.01       61.75       
N           -70.65      30.01       64.39       
N           -71.35      29.53       65.38       
N           -71.92      28.4        65.07       
C           -71.55      30.31       66.54       
H           -71.58      26.22       61.1        
H           -69.96      27.79       60.34       
H           -70.97002   31.21935    66.38248    
H           -72.67      30.5        66.58       
H           -71.26126   29.72531    67.41342    
C           -70.42      27.98       61.29       
C           -70.74      29.15       63.31       
C           -70.08      29.1        62.05       
C           -74.06      24.16       64.82       
C           -74.09      23.93       63.47       
S           -73.25      25.66       65.18       
H           -73.58      24.89       61.55       
H           -74.7       23.2        63.03       
C           -73.47      24.92       62.66       
C           -72.9       25.91       63.47       
C           -74.58      21.9        69.03       
C           -75.11      22.18       67.74       
N           -73.25      22.33       68.97       
C           -72.99      23.09       67.79       
C           -76.31      22.18       66.94       
O           -77.42      21.85       67.13       
O           -71.89      23.4        67.4        
C           -77.04      23.1        64.75       
C           -72.17      22.21       69.9        
H           -71.89959   23.18491    70.30562    
H           -71.29      21.75       69.36       
H           -72.43      21.57       70.72       
H           -76.83      23.03       63.74       
H           -77.4246    24.10423    64.92806    
H           -77.79      22.34       64.85       
N           -75.96      22.83       65.7        
C           -74.18      22.91       66.94       
C           -74.66      23.3        65.76       
C           -76.65      19.42       71.18       
C           -75.87      20.12       72.01       
S           -76.3       19.86       69.55       
H           -74.39      21.85       71.76       
H           -75.88      20.04       73.08       
C           -75.05      21.1        71.32       
C           -75.26      21.14       70.01       
C           -79.05      15.69       71.9        
C           -78.46      16.43       72.98       
C           -78.96      16.33       70.68       
N           -77.44      17.99       74.05       
N           -77.86      17.08       74.84       
N           -78.45      16.03       74.28       
C           -77.72      17.26       76.27       
H           -79.25      15.83       69.81       
H           -78.13      17.97       69.52       
H           -77.72      16.2823     76.75187    
H           -78.55      17.87       76.59       
H           -76.74615   17.70072    76.48325    
C           -78.14      17.52       70.54       
C           -77.76      17.65       72.81       
C           -77.53      18.27       71.55       
H           36.76       76.77       11.41       
H           -78.93      14.63       71.84       
