472

C           42.17       46.21       41.24       
C           42.53       46.59       40.01       
S           40.55       46.72       41.55       
H           41.39       47.27       38.12       
H           43.47       46.39       39.56       
C           41.41       46.99       39.22       
C           40.29       47.26       39.88       
C           42.93       44.25       45.4        
C           43.53       44.81       44.26       
N           41.62       43.84       45.06       
C           41.4        44.1        43.65       
C           44.71       45.45       43.76       
O           45.81       45.74       44.22       
O           40.35       43.8        43.1        
C           45.11       47.03       41.84       
C           40.83       42.76       45.64       
H           39.82934    43.11738    45.88302    
H           41.29       42.43       46.59       
H           40.79       41.86       45.02       
H           44.44       47.88       41.54       
H           45.96238    46.74349    41.224      
H           45.55       47.55       42.69       
N           44.32       45.92       42.44       
C           42.53       44.85       43.23       
C           43.03       45.56       42.16       
C           43.83       44.65       49.24       
C           44.93       44.98       48.4        
S           42.48       44.22       48.22       
H           45.41       44.95       46.36       
H           45.88       45.28       48.74       
C           44.68       44.78       47.08       
C           43.43       44.25       46.77       
C           42.88       45.76       53.42       
C           44.05       46.25       52.81       
C           42.07       44.97       52.61       
N           45.58       46.45       51.09       
N           45.88       47.12       52.18       
N           44.97       47.08       53.16       
C           47.33       47.22       52.5        
H           41.11       44.56       53.0        
H           41.73       43.92       50.79       
H           47.94021    46.99117    51.62629    
H           47.52       48.29       52.8        
H           47.60558    46.57456    53.334      
C           42.41       44.58       51.26       
C           44.36       45.93       51.44       
C           43.59       45.02       50.66       
C           41.12       46.08       56.9        
C           42.24       46.88       56.92       
S           41.06       45.18       55.42       
H           43.89       47.36       55.61       
H           42.53       47.57       57.71       
C           43.0        46.77       55.74       
C           42.51       45.88       54.82       
C           39.09       47.11       61.3        
C           39.07       46.44       60.08       
N           39.95       48.16       61.04       
C           40.8        47.93       59.89       
C           38.4        45.4        59.44       
O           37.51       44.67       59.83       
O           41.75       48.58       59.63       
C           38.64       43.98       57.37       
C           39.97       49.45       61.6        
H           40.87882    49.59426    62.18424    
H           39.09       49.59       62.25       
H           39.9        50.32       60.89       
H           39.46       43.48       56.78       
H           37.73065    44.05104    56.77324    
H           38.43       43.29       58.22       
N           39.0        45.22       58.13       
C           40.13       46.87       59.2        
C           40.13       46.07       58.04       
C           37.33       46.69       64.83       
C           36.54       46.13       63.83       
S           38.74       47.37       64.09       
H           36.48       45.95       61.63       
H           35.64       45.56       63.99       
C           37.07       46.29       62.5        
C           38.26       47.02       62.46       
C           36.54       47.61       69.01       
C           35.65       46.79       68.27       
C           37.66       47.98       68.38       
N           34.7        45.93       66.4        
N           33.92       45.82       67.47       
N           34.37       46.37       68.65       
C           32.66       45.04       67.33       
H           38.5        48.54       68.89       
H           38.95       47.96       66.67       
H           32.50781    44.7936     66.27918    
H           32.72       44.15       67.97       
H           31.84484    45.6496     67.71986    
C           37.96       47.66       67.03       
C           35.84       46.54       66.9        
C           37.07       46.92       66.23       
C           36.98       48.41       72.89       
C           35.75       47.85       72.74       
S           37.83       48.36       71.39       
H           34.39       47.29       71.03       
H           35.12       47.54       73.61       
C           35.42       47.68       71.35       
C           36.46       47.88       70.42       
C           37.49       49.16       77.59       
C           38.0        49.34       76.3        
N           36.46       48.2        77.36       
C           36.26       47.77       76.01       
C           39.04       50.03       75.52       
O           40.02       50.77       75.74       
O           35.41       46.93       75.68       
C           39.05       50.77       73.12       
C           36.11       47.15       78.27       
H           35.04768    47.17852    78.51241    
H           36.2        46.22       77.82       
H           36.78       47.14       79.18       
H           38.26       50.94       72.33       
H           40.02267    50.5996     72.65851    
H           39.05       51.76       73.58       
N           38.62       49.81       74.16       
C           37.24       48.6        75.35       
C           37.59       48.84       74.09       
C           38.11       50.76       81.16       
C           39.15       51.06       80.35       
S           37.03       49.75       80.28       
H           39.77       50.71       78.25       
H           39.95       51.71       80.63       
C           39.1        50.47       79.07       
C           37.97       49.65       78.83       
C           37.04       52.96       84.86       
C           36.41       51.74       84.56       
C           37.92       53.39       83.92       
N           36.05       49.95       83.29       
N           35.39       49.91       84.43       
N           35.54       50.96       85.27       
C           34.43       48.92       84.76       
H           38.46       54.38       84.03       
H           39.22       52.99       82.2        
H           34.74061    47.95287    84.36468    
H           34.36       48.78       85.84       
H           33.50901    49.25818    84.28511    
C           38.31       52.7        82.7        
C           36.77       51.07       83.34       
C           37.73       51.52       82.37       
C           37.22       55.17       88.06       
C           36.24       54.24       88.25       
S           37.83       55.0        86.48       
H           35.27       52.62       87.19       
H           35.76       54.2        89.24       
C           35.98       53.38       87.18       
C           36.79       53.65       86.12       
C           38.0        57.19       92.42       
C           38.11       57.19       91.05       
N           37.03       56.26       92.65       
C           36.6        55.53       91.44       
C           38.72       57.95       89.96       
O           39.41       59.0        89.86       
O           35.84       54.58       91.54       
C           38.46       57.91       87.49       
C           35.99       56.3        93.66       
H           35.02244    56.53838    93.21829    
H           36.19       57.03       94.4        
H           35.88       55.4        94.22       
H           37.59       57.61       86.86       
H           39.39345    57.8304     86.93283    
H           38.25       58.95       87.73       
N           38.45       57.17       88.79       
C           37.34       56.18       90.38       
C           37.66       56.11       89.06       
C           40.16       59.85       94.43       
C           39.73       58.95       95.26       
S           39.61       59.48       92.83       
H           38.34       57.14       95.11       
H           39.93       59.02       96.37       
C           38.92       57.94       94.64       
C           38.77       58.06       93.33       
C           42.49       63.6        94.86       
C           42.2        62.78       95.99       
C           42.17       63.04       93.69       
N           41.29       61.05       97.12       
N           42.15       61.8        97.83       
N           42.7        62.85       97.3        
C           42.4        61.26       99.15       
H           42.58       63.47       92.85       
H           41.47       61.44       92.59       
H           42.64091    60.19717    99.12874    
H           43.25       61.72       99.57       
H           41.60265    61.52095    99.84587    
C           41.46       61.85       93.56       
C           41.39       61.58       95.87       
C           40.96       61.08       94.63       
C           45.25       66.35       94.35       
C           44.48       66.73       95.5        
S           44.66       64.8        93.74       
H           42.75       65.93       96.61       
H           44.59       67.66       96.03       
C           43.48       65.77       95.83       
C           43.42       64.73       94.94       
C           47.61       70.49       93.41       
C           47.64       69.01       93.33       
N           46.38       70.89       94.01       
C           45.68       69.74       94.36       
C           48.35       67.83       92.99       
O           49.41       67.68       92.48       
O           44.59       69.8        94.96       
C           47.86       65.35       92.84       
C           45.69       72.19       94.12       
H           44.68306    72.12707    93.70743    
H           46.15       72.9        93.54       
H           45.7        72.62       95.1        
H           47.07       64.87       92.35       
H           48.25114    64.82123    93.7092     
H           48.63       65.47       92.15       
N           47.47       66.69       93.25       
C           46.4        68.58       93.92       
C           46.28       67.17       93.81       
C           50.26       73.3        92.4        
C           50.77       72.04       92.4        
S           48.56       73.16       92.84       
H           50.28       70.04       92.92       
H           51.78       71.77       92.13       
C           49.88       71.03       92.74       
C           48.64       71.44       93.07       
C           51.98       77.34       91.61       
C           52.63       76.11       91.23       
C           50.73       77.14       92.14       
N           52.95       73.9        91.06       
N           53.98       74.58       90.73       
N           53.86       75.93       90.78       
C           55.1        73.97       89.93       
H           50.09       77.94       92.45       
H           49.24       75.88       92.94       
H           55.15592    72.90048    90.13272    
H           54.91       74.12       88.82       
H           56.05051    74.46954    90.11733    
C           50.19       75.83       92.41       
C           52.08       74.84       91.42       
C           50.81       74.64       92.07       
C           53.21       80.92       92.23       
C           53.96       80.4        91.22       
S           51.92       79.81       92.57       
H           54.23       78.55       90.12       
H           54.75       80.92       90.72       
C           53.61       79.14       90.83       
C           52.57       78.65       91.49       
C           55.54       84.95       93.17       
C           54.48       84.08       93.5        
N           55.97       84.66       91.86       
C           55.36       83.38       91.48       
C           53.47       83.86       94.56       
O           53.39       84.38       95.69       
O           55.72       82.94       90.36       
C           52.06       81.94       95.06       
C           56.42       85.57       90.82       
H           57.49392    85.49228    90.65043    
H           56.22       86.59       91.02       
H           55.78       85.41       89.96       
H           52.23       80.83       95.0        
H           51.0199     82.19457    94.85634    
H           52.42       82.4        96.0        
N           52.95       82.58       94.13       
C           54.41       83.08       92.49       
C           53.45       82.18       92.89       
C           55.8        88.5        94.86       
C           57.04       87.99       94.65       
S           54.6        87.22       94.52       
H           57.94       86.1        93.8        
H           57.93       88.55       94.91       
C           57.08       86.63       94.12       
C           55.84       86.17       93.93       
C           54.7        92.39       96.58       
C           53.73       91.58       95.9        
C           55.98       91.83       96.56       
N           52.85       89.79       94.86       
N           51.97       90.78       95.02       
N           52.46       91.87       95.59       
C           50.54       90.6        95.13       
H           56.79       92.46       96.94       
H           57.34       90.39       95.96       
H           50.25757    89.57361    95.36421    
H           50.26       91.3        95.91       
H           49.96934    90.91627    94.25683    
C           56.31       90.62       95.83       
C           53.98       90.32       95.29       
C           55.34       89.8        95.33       
C           53.07       95.55       98.52       
C           54.42       95.67       98.58       
S           52.72       94.11       97.63       
H           56.21       94.5        98.07       
H           54.94       96.49       99.06       
C           55.12       94.6        97.9        
C           54.35       93.63       97.25       
C           51.11       98.59       101.68      
C           51.06       98.06       100.4       
N           52.38       98.42       102.13      
C           53.08       97.51       101.25      
C           50.11       97.84       99.3        
O           49.08       98.24       98.98       
O           54.11       97.04       101.47      
C           50.47       96.5        97.02       
C           53.03       98.98       103.35      
H           53.19625    100.05703   103.32831   
H           52.5        98.64       104.24      
H           54.0        98.54       103.39      
H           50.46       95.39       96.82       
H           51.0014     97.10226    96.28312    
H           49.42       96.8        97.0        
N           50.84       96.89       98.48       
C           52.2        97.2        100.15      
C           52.03       96.41       99.07       
C           48.65       100.88      103.63      
C           48.57       101.13      102.27      
S           49.87       99.72       103.91      
H           49.43       100.19      100.37      
H           47.8        101.8       101.79      
C           49.36       100.23      101.48      
C           50.26       99.54       102.2       
C           46.28       103.21      106.56      
C           46.71       103.72      105.32      
C           46.72       101.91      106.74      
N           47.6        103.75      103.28      
N           46.97       104.94      103.58      
N           46.43       104.94      104.79      
C           46.76       106.05      102.67      
H           46.38       101.41      107.63      
H           47.69       100.14      106.13      
H           47.55512    106.16779   101.93378   
H           45.86       105.75      102.12      
H           46.69237    106.9517    103.27865   
C           47.52       101.2       105.87      
C           47.45       102.95      104.35      
C           47.98       101.65      104.68      
C           43.59       104.35      109.27      
C           43.83       105.47      108.49      
S           44.6        103.04      108.8       
H           45.2        105.98      106.88      
H           43.33       106.42      108.59      
C           44.88       105.2       107.53      
C           45.37       103.92      107.49      
C           41.14       102.13      112.7       
C           41.34       103.25      111.92      
N           42.31       101.4       112.51      
C           43.16       101.96      111.49      
C           40.71       104.54      111.54      
O           39.73       105.15      111.87      
O           44.08       101.33      111.06      
C           41.45       106.6       110.36      
C           42.9        100.41      113.29      
H           42.57818    99.45169    112.88236   
H           43.98       100.4       113.17      
H           42.67       100.4       114.32      
H           41.6        106.79      109.3       
H           42.1012     107.27267   110.91817   
H           40.34       106.87      110.5       
N           41.63       105.19      110.61      
C           42.57       103.22      111.18      
C           42.63       104.36      110.32      
C           38.19       100.84      114.78      
C           38.19       102.21      114.88      
S           39.62       100.28      114.03      
H           39.22       103.81      113.88      
H           37.45       102.82      115.42      
C           39.2        102.74      114.07      
C           40.1        101.87      113.61      
C           36.29       98.13       117.76      
C           36.73       97.65       116.52      
C           36.47       99.44       117.9       
N           37.61       97.73       114.37      
N           37.33       96.53       114.72      
N           36.72       96.42       115.93      
C           37.45       95.45       113.74      
H           36.32       99.87       118.89      
H           37.28       101.24      117.28      
H           38.07183    95.89716    112.96445   
H           37.91       94.61       114.23      
H           36.49993    95.10651    113.33074   
C           37.09       100.26      116.91      
C           37.3        98.5        115.44      
C           37.42       99.94       115.62      
C           35.1        95.38       120.33      
C           34.39       96.53       120.5       
S           36.18       95.64       119.07      
H           34.11       98.51       119.55      
H           33.64       96.57       121.28      
C           34.71       97.62       119.66      
C           35.65       97.25       118.77      
C           32.8        92.05       123.01      
C           33.7        92.38       122.01      
N           32.13       93.26       123.25      
C           32.66       94.33       122.51      
C           34.77       91.84       121.23      
O           35.33       90.72       121.14      
O           32.23       95.49       122.61      
C           36.81       92.81       120.25      
C           30.82       93.33       123.89      
H           30.03895    93.18089    123.14446   
H           30.63       94.33       124.39      
H           30.71       92.5        124.58      
H           37.29       93.74       120.22      
H           36.88727    92.34637    119.26655   
H           37.37       92.17       121.03      
N           35.43       93.0        120.71      
C           33.73       93.75       121.75      
C           34.7        94.1        120.88      
C           32.28       88.7        124.94      
C           32.61       88.44       123.63      
S           32.05       90.36       125.14      
H           33.27       89.66       121.89      
H           32.78       87.42       123.24      
C           32.87       89.61       122.9       
C           32.5        90.74       123.53      
C           32.31       86.13       128.5       
C           32.25       85.61       127.23      
C           32.33       87.5        128.51      
N           32.58       85.64       125.01      
N           32.56       84.43       125.55      
N           32.36       84.32       126.84      
C           32.31       83.26       124.65      
H           32.46       88.01       129.44      
H           32.18       89.48       127.63      
H           32.97578    83.30205    123.78799   
H           32.41       82.3        125.18      
H           31.29929    83.36853    124.25657   
C           32.29       88.37       127.4       
C           32.33       86.44       126.09      
C           32.33       87.83       126.11      
C           32.45       83.62       131.71      
C           33.61       84.44       131.67      
S           31.66       83.87       130.18      
H           34.27       86.17       130.47      
H           34.39       84.49       132.47      
C           33.57       85.38       130.59      
C           32.55       85.25       129.66      
C           33.54       80.37       135.18      
C           32.59       80.9        134.33      
N           34.76       80.89       134.8       
C           34.59       82.07       134.0       
C           31.2        80.87       133.9       
O           30.25       80.14       134.2       
O           35.52       82.6        133.49      
C           29.84       81.94       132.11      
C           36.09       80.66       135.32      
H           36.37527    81.45874    136.00464   
H           36.77       80.6        134.47      
H           36.24       79.76       135.84      
H           29.87       81.98       131.03      
H           29.0965     82.66246    132.44668   
H           29.3        81.04       132.24      
N           31.08       81.88       132.89      
C           33.15       82.0        133.57      
C           32.28       82.53       132.64      
C           32.92       78.15       138.38      
C           31.93       78.0        137.45      
S           34.02       79.34       137.67      
H           31.47       78.52       135.4       
H           31.09       77.45       137.74      
C           32.16       78.62       136.21      
C           33.3        79.35       136.09      
C           33.44       76.55       142.42      
C           32.39       76.17       141.59      
C           34.31       77.34       141.8       
N           30.92       76.31       139.87      
N           30.56       75.42       140.78      
N           31.4        75.34       141.89      
C           29.16       75.07       140.92      
H           35.19       77.43       142.34      
H           34.92       78.4        140.05      
H           28.7613     75.44072    141.8643    
H           29.03       74.04       140.74      
H           28.6286     75.53589    140.09014   
C           34.15       77.78       140.48      
C           32.13       76.76       140.28      
C           33.03       77.6        139.7       
H           39.62       48.09       39.61       
H           33.4        76.44       143.47      
