472

C           7.32        51.89       79.4        
C           6.75        51.7        78.17       
S           6.37        51.07       80.58       
H           4.98        50.78       77.27       
H           7.18        52.22       77.29       
C           5.58        50.98       78.12       
C           5.18        50.65       79.39       
C           11.49       54.05       78.32       
C           10.68       53.48       79.2        
N           10.72       54.44       77.19       
C           9.42        53.83       77.3        
C           10.65       52.87       80.56       
O           11.59       52.68       81.28       
O           8.58        53.91       76.38       
C           8.99        51.91       82.03       
C           10.87       55.55       76.26       
H           9.98886     56.19147    76.2741     
H           11.01       55.25       75.25       
H           11.6        56.3        76.56       
H           8.37        51.01       82.07       
H           8.4609      52.75239    82.47556    
H           9.93        51.77       82.53       
N           9.34        52.29       80.73       
C           9.42        53.23       78.67       
C           8.61        52.53       79.6        
C           15.13       55.05       79.47       
C           15.02       55.21       78.11       
S           13.54       54.79       80.1        
H           13.59       54.68       76.56       
H           15.81       55.41       77.38       
C           13.78       54.8        77.63       
C           12.81       54.51       78.55       
C           18.86       55.21       81.87       
C           17.73       54.47       82.29       
C           18.55       55.88       80.73       
N           15.71       53.5        82.17       
N           16.39       53.03       83.18       
N           17.6        53.56       83.3        
C           15.73       52.29       84.27       
H           19.29       56.61       80.36       
H           17.38       56.35       79.02       
H           14.66789    52.23058    84.03232    
H           16.2        51.25       84.21       
H           15.90577    52.79623    85.21918    
C           17.37       55.78       79.96       
C           16.54       54.39       81.55       
C           16.33       55.0        80.3        
C           22.73       55.68       82.79       
C           22.24       54.67       83.5        
S           21.4        56.29       81.83       
H           20.37       53.48       83.76       
H           22.89       54.01       84.02       
C           20.85       54.35       83.33       
C           20.17       55.22       82.46       
C           26.35       58.75       82.2        
C           25.89       57.48       82.57       
N           25.19       59.49       82.07       
C           23.98       58.68       82.13       
C           26.34       56.29       83.08       
O           27.38       55.87       83.46       
O           22.93       59.08       81.9        
C           25.35       53.96       83.12       
C           24.99       60.92       81.82       
H           24.84474    61.09984    80.7548     
H           25.92       61.49       82.15       
H           24.19       61.37       82.33       
H           24.61       53.51       82.47       
H           25.4688     53.41492    84.05642    
H           26.29       53.86       82.59       
N           25.2        55.42       83.2        
C           24.47       57.39       82.48       
C           24.09       56.15       82.82       
C           29.89       60.55       82.15       
C           29.89       59.56       83.12       
S           28.25       60.69       81.5        
H           28.63       57.93       83.72       
H           30.75       59.42       83.75       
C           28.74       58.78       83.1        
C           27.66       59.33       82.41       
C           33.01       63.59       81.31       
C           33.23       62.37       81.94       
C           31.69       63.8        81.08       
N           32.88       60.25       82.7        
N           34.14       60.66       82.61       
N           34.45       61.91       82.45       
C           35.2        59.81       83.1        
H           31.33       64.75       80.65       
H           29.64       63.08       81.14       
H           34.99904    58.79083    82.76985    
H           36.19       60.19       82.65       
H           35.20694    59.83776    84.18962    
C           30.67       62.84       81.41       
C           32.27       61.36       82.16       
C           30.93       61.57       81.84       
C           35.49       66.19       79.72       
C           36.22       65.32       80.49       
S           33.81       65.78       79.8        
H           35.75       63.73       81.92       
H           37.27       65.46       80.63       
C           35.38       64.4        81.22       
C           34.09       64.45       80.83       
C           38.78       68.74       77.39       
C           37.46       68.51       77.72       
N           39.5        67.77       78.02       
C           38.67       66.85       78.78       
C           36.19       69.09       77.53       
O           35.75       69.94       76.8        
O           39.13       65.99       79.45       
C           34.23       68.96       78.92       
C           40.84       67.84       78.49       
H           41.5177     67.18416    77.94347    
H           41.22       68.79       78.53       
H           40.94       67.47       79.57       
H           34.21       68.83       80.0        
H           33.27043    68.65882    78.49975    
H           34.34       70.08       78.82       
N           35.38       68.3        78.4        
C           37.38       67.38       78.62       
C           36.04       67.21       78.9        
C           39.54       72.54       76.24       
C           40.64       71.68       76.09       
S           38.44       71.6        77.19       
H           41.27       69.56       76.35       
H           41.57       72.01       75.75       
C           40.47       70.32       76.41       
C           39.27       70.08       77.02       
C           39.0        76.85       76.68       
C           38.04       76.05       75.97       
C           40.15       76.19       77.0        
N           37.11       74.1        75.29       
N           36.21       75.11       75.34       
N           36.75       76.29       75.65       
C           34.86       74.91       75.03       
H           41.01       76.7        77.49       
H           41.39       74.48       77.07       
H           34.67051    73.84325    74.91069    
H           34.16       75.28       75.83       
H           34.62549    75.48562    74.13459    
C           40.38       74.85       76.77       
C           38.22       74.64       75.89       
C           39.42       74.0        76.19       
C           38.04       80.67       77.23       
C           39.17       80.39       77.93       
S           37.5        79.22       76.48       
H           40.55       78.7        78.37       
H           39.71       81.21       78.42       
C           39.69       79.07       77.87       
C           38.87       78.32       77.05       
C           34.99       83.55       74.93       
C           35.51       83.16       76.15       
N           35.92       83.19       73.99       
C           36.83       82.19       74.53       
C           35.4        83.39       77.6        
O           34.84       84.16       78.28       
O           37.61       81.58       73.84       
C           36.61       82.44       79.62       
C           36.32       83.96       72.85       
H           37.35361    84.28027    72.98102    
H           35.73       84.92       72.83       
H           36.01       83.56       71.9        
H           37.64       82.38       79.92       
H           35.86837    81.73438    79.99441    
H           36.31       83.39       80.08       
N           36.51       82.55       78.17       
C           36.66       82.29       75.99       
C           37.24       81.87       77.18       
C           31.99       85.95       73.83       
C           32.08       85.88       75.2        
S           33.06       84.72       73.24       
H           33.26       84.96       76.84       
H           31.4        86.44       75.91       
C           33.12       85.06       75.72       
C           33.83       84.41       74.75       
C           29.11       88.14       71.3        
C           30.27       87.53       70.74       
C           29.02       87.92       72.61       
N           32.4        86.7        70.79       
N           31.96       87.11       69.59       
N           30.76       87.68       69.51       
C           32.8        87.17       68.42       
H           28.23       88.41       73.17       
H           29.67       87.13       74.5        
H           33.80863    86.8453     68.67561    
H           32.35       86.61       67.61       
H           32.85754    88.22724    68.16108    
C           29.88       87.17       73.44       
C           31.27       86.91       71.59       
C           31.05       86.71       72.99       
C           27.69       91.1        69.31       
C           26.62       90.51       69.83       
S           29.19       90.39       69.91       
H           26.28       88.78       71.26       
H           25.56       90.8        69.77       
C           26.99       89.4        70.69       
C           28.31       89.05       70.54       
C           29.65       94.74       66.94       
C           28.72       93.7        66.96       
N           30.14       94.91       68.26       
C           29.49       93.95       69.15       
C           27.85       92.89       66.16       
O           27.68       92.86       64.95       
O           29.74       93.97       70.34       
C           27.09       90.54       66.39       
C           31.23       95.69       68.87       
H           32.13082    95.08465    68.97089    
H           30.96       96.11       69.86       
H           31.48       96.51       68.29       
H           26.1        90.15       66.56       
H           27.78978    89.72244    66.56321    
H           27.08       90.77       65.35       
N           27.43       91.81       67.05       
C           28.66       93.18       68.27       
C           27.71       92.15       68.34       
C           31.55       96.85       64.12       
C           30.58       96.02       63.53       
S           31.36       96.7        65.85       
H           29.07       94.49       64.19       
H           30.39       96.01       62.46       
C           29.87       95.2        64.5        
C           30.18       95.48       65.79       
C           34.89       99.18       62.34       
C           33.92       98.46       61.55       
C           34.57       99.1        63.69       
N           32.18       97.21       61.08       
N           32.82       97.5        59.98       
N           33.96       98.14       60.2        
C           32.61       96.76       58.7        
H           35.16       99.74       64.43       
H           33.4        98.46       65.27       
H           31.66179    96.22314    58.72789    
H           32.59       97.5        57.91       
H           33.4186     96.05969    58.49063    
C           33.46       98.44       64.22       
C           32.82       97.77       62.12       
C           32.56       97.69       63.51       
C           37.87       101.7       61.45       
C           37.29       101.29      60.32       
S           37.01       100.99      62.77       
H           35.68       99.89       59.66       
H           37.54       101.72      59.37       
C           36.27       100.32      60.49       
C           35.93       100.04      61.78       
C           40.55       105.6       60.31       
C           40.33       104.5       61.11       
N           39.66       105.41      59.22       
C           38.77       104.27      59.45       
C           40.86       103.84      62.34       
O           41.83       104.04      63.08       
O           37.84       103.92      58.71       
C           40.32       101.79      63.52       
C           39.77       106.01      57.88       
H           40.09886    105.2893    57.13131    
H           40.28       106.92      57.81       
H           38.73       106.15      57.54       
H           40.05       100.77      63.16       
H           39.9521     101.98131   64.52804    
H           41.43       101.85      63.52       
N           39.89       102.8       62.59       
C           39.17       103.79      60.74       
C           38.84       102.8       61.64       
C           43.3        108.3       59.78       
C           43.72       107.42      60.75       
S           41.72       107.94      59.39       
H           42.93       105.67      61.81       
H           44.78       107.29      61.06       
C           42.76       106.44      61.08       
C           41.68       106.49      60.32       
C           45.82       111.33      57.75       
C           44.44       111.06      57.4        
C           46.14       110.7       58.98       
N           42.42       110.21      57.56       
N           42.52       111.05      56.53       
N           43.72       111.63      56.38       
C           41.42       111.59      55.82       
H           47.1        110.91      59.46       
H           45.72       109.4       60.55       
H           40.63291    110.83805   55.87622    
H           41.12       112.47      56.3        
H           41.69061    111.87524   54.80338    
C           45.32       109.83      59.65       
C           43.62       110.16      58.09       
C           44.12       109.34      59.14       
C           48.8        113.63      56.53       
C           48.1        113.26      55.44       
S           47.97       113.02      57.94       
H           46.24       112.07      54.89       
H           48.42       113.35      54.42       
C           46.87       112.49      55.67       
C           46.76       112.21      57.03       
C           52.37       115.46      58.8        
C           51.65       115.38      57.69       
N           51.88       114.54      59.72       
C           50.97       113.67      59.02       
C           51.53       116.0       56.38       
O           52.16       116.85      55.76       
O           50.49       112.66      59.57       
C           50.14       115.58      54.5        
C           51.9        114.46      61.18       
H           52.70045    113.82248   61.55543    
H           52.03       115.47      61.61       
H           50.99       113.96      61.53       
H           49.01       115.58      54.39       
H           50.70357    114.95788   53.80469    
H           50.44       116.56      54.34       
N           50.37       115.31      55.81       
C           50.68       114.33      57.78       
C           49.97       114.38      56.61       
C           55.3        117.87      60.14       
C           54.69       118.4       59.02       
S           54.54       116.25      60.35       
H           53.15       117.96      57.58       
H           54.88       119.45      58.75       
C           53.7        117.61      58.42       
C           53.38       116.46      59.1        
C           58.56       119.14      62.79       
C           58.19       119.92      61.68       
C           57.9        117.9       62.9        
N           56.85       120.55      60.0        
N           57.82       121.44      60.31       
N           58.68       121.1       61.25       
C           58.17       122.43      59.3        
H           58.11       117.24      63.72       
H           56.53       116.47      62.17       
H           57.32408    123.11378   59.22951    
H           59.02       122.97      59.67       
H           58.35687    121.92689   58.35128    
C           56.91       117.45      61.97       
C           57.07       119.55      60.9        
C           56.42       118.26      60.99       
C           61.22       120.71      65.17       
C           60.53       119.76      65.85       
S           60.63       120.88      63.53       
H           58.93       118.17      65.47       
H           60.77       119.51      66.85       
C           59.54       119.01      65.08       
C           59.45       119.59      63.83       
C           63.09       122.85      68.97       
C           63.13       122.59      67.59       
N           61.9        122.3       69.39       
C           61.21       121.58      68.38       
C           63.99       122.91      66.45       
O           65.04       123.46      66.26       
O           60.09       121.16      68.53       
C           64.12       121.6       64.34       
C           61.12       122.57      70.63       
H           61.19132    121.74268   71.33608    
H           61.41       123.55      71.05       
H           60.13       122.53      70.35       
H           63.57       121.6       63.39       
H           64.43576    120.58956   64.59963    
H           64.98       122.18      64.18       
N           63.27       122.16      65.43       
C           61.99       121.82      67.14       
C           62.08       121.6       65.81       
C           65.45       124.78      71.44       
C           66.08       124.53      70.28       
S           63.9        123.98      71.45       
H           65.6        123.6       68.44       
H           67.02       125.0       70.03       
C           65.27       123.9       69.38       
C           64.05       123.51      69.79       
C           66.58       127.33      74.9        
C           67.21       127.43      73.59       
C           65.73       126.28      74.98       
N           67.59       127.03      71.36       
N           68.18       128.1       71.91       
N           67.99       128.44      73.2        
C           69.06       128.92      71.08       
H           65.27       126.06      75.99       
H           64.81       124.61      74.06       
H           69.22932    128.4562    70.10824    
H           68.58       129.89      70.91       
H           69.97667    129.13654   71.62856    
C           65.51       125.37      73.9        
C           66.82       126.63      72.42       
C           65.89       125.6       72.6        
C           67.45       129.73      78.0        
C           66.5        128.85      78.36       
S           67.67       129.62      76.29       
H           65.36       127.25      77.47       
H           66.12       128.81      79.34       
C           66.1        128.0       77.31       
C           66.72       128.18      76.06       
C           68.04       132.71      81.78       
C           68.46       132.24      80.57       
N           67.1        131.84      82.21       
C           66.75       130.91      81.19       
C           69.38       132.55      79.51       
O           70.33       133.36      79.46       
O           65.92       129.96      81.34       
C           70.3        131.21      77.57       
C           66.9        131.3       83.52       
H           67.6933     130.57045   83.68291    
H           65.91       130.84      83.66       
H           66.88       132.01      84.35       
H           69.96       131.34      76.45       
H           70.69719    130.20332   77.70012    
H           71.03       132.03      77.74       
N           69.29       131.42      78.62       
C           67.67       131.15      80.09       
C           68.08       130.72      78.84       
C           69.43       135.56      84.14       
C           70.42       134.88      83.5        
S           68.01       134.69      83.86       
H           70.78       133.42      81.87       
H           71.46       135.2       83.65       
C           70.05       133.9       82.58       
C           68.78       133.6       82.66       
C           69.79       138.56      87.34       
C           70.94       137.84      86.84       
C           68.63       138.19      86.75       
N           72.17       136.48      85.6        
N           72.87       137.03      86.52       
N           72.26       137.9       87.28       
C           74.15       136.48      87.09       
H           67.66       138.56      87.07       
H           67.61       137.04      85.14       
H           74.24312    135.50579   86.61006    
H           74.93       137.25      86.89       
H           74.03923    136.38308   88.17002    
C           68.56       137.28      85.64       
C           70.88       136.94      85.75       
C           69.64       136.57      85.15       
C           69.8        141.53      89.94       
C           70.78       140.62      90.33       
S           68.92       140.89      88.61       
H           71.59       138.63      89.57       
H           71.51       140.89      91.12       
C           70.87       139.45      89.49       
C           69.91       139.44      88.46       
C           69.56       144.41      93.83       
C           69.36       144.2       92.5        
N           70.09       143.25      94.31       
C           70.55       142.39      93.22       
C           68.74       144.85      91.34       
O           68.23       145.91      91.05       
O           71.1        141.35      93.33       
C           68.56       144.17      88.94       
C           69.83       142.57      95.52       
H           70.76403    142.27988   96.00117    
H           69.26       141.7       95.45       
H           69.45       143.21      96.26       
H           67.82       143.52      88.47       
H           69.49811    144.14946   88.38535    
H           68.19       145.2       89.03       
N           68.81       143.83      90.33       
C           69.97       143.01      92.04       
C           69.58       142.74      90.72       
C           68.25       147.52      95.68       
C           69.45       147.14      96.18       
S           67.6        146.33      94.56       
H           70.88       145.46      95.72       
H           70.09       147.72      96.86       
C           69.92       145.91      95.57       
C           69.14       145.5       94.59       
C           65.63       150.87      97.0        
C           66.79       150.53      97.72       
C           65.35       150.03      95.97       
N           68.62       149.41      98.27       
N           68.23       150.32      99.14       
N           67.2        151.12      98.89       
C           69.1        150.53      100.28      
H           64.47       150.19      95.32       
H           65.86       148.4       94.73       
H           68.50171    151.07783   101.00804   
H           69.96       151.19      100.07      
H           69.44139    149.60141   100.73747   
C           66.17       148.91      95.64       
C           67.6        149.39      97.35       
C           67.35       148.57      96.2        
H           4.12        50.47       79.58       
H           64.87       151.44      97.46       
