472

C           62.13       23.56       13.19       
C           63.32       23.25       12.6        
S           60.91       23.61       11.91       
H           64.16       23.03       10.61       
H           64.29       23.35       13.15       
C           63.27       23.15       11.18       
C           62.04       23.37       10.66       
C           59.54       24.87       17.12       
C           60.77       24.58       16.53       
N           58.57       24.68       16.15       
C           59.24       24.36       14.87       
C           62.16       24.37       16.88       
O           62.83       24.61       17.83       
O           58.66       24.13       13.83       
C           64.2        24.44       15.56       
C           57.15       24.53       16.34       
H           56.7233     23.57705    16.02709    
H           56.61       25.38       15.92       
H           56.9        24.5        17.4        
H           64.51       24.83       14.53       
H           64.83003    23.71197    16.07102    
H           64.34       25.36       16.14       
N           62.77       24.14       15.62       
C           60.66       24.27       15.13       
C           61.9        23.97       14.56       
C           58.28       26.37       20.61       
C           59.62       25.93       20.68       
S           57.86       26.16       18.99       
H           61.2        25.02       19.47       
H           60.21       26.12       21.54       
C           60.17       25.38       19.53       
C           59.25       25.27       18.49       
C           56.11       29.36       22.99       
C           55.48       28.3        22.27       
C           57.45       29.38       22.89       
N           55.19       26.62       20.82       
N           54.07       27.09       21.32       
N           54.18       28.14       22.17       
C           52.91       27.12       20.43       
H           58.05       30.21       23.35       
H           59.23       28.45       22.06       
H           53.3027     27.23921    19.42021    
H           52.45       26.21       20.54       
H           52.24968    27.96296    20.63372    
C           58.19       28.29       22.18       
C           56.09       27.31       21.52       
C           57.54       27.25       21.52       
C           54.08       31.29       25.84       
C           55.08       32.13       25.37       
S           54.15       29.75       24.92       
H           56.59       32.29       23.77       
H           55.33       33.1        25.88       
C           55.82       31.69       24.21       
C           55.45       30.37       23.87       
C           53.09       32.55       30.36       
C           52.84       31.8        29.27       
N           54.05       33.56       29.94       
C           54.5        33.35       28.57       
C           51.91       30.8        28.86       
O           50.96       30.28       29.35       
O           55.49       33.89       28.11       
C           51.36       29.83       26.67       
C           54.14       34.94       30.47       
H           53.55608    35.61262    29.84173    
H           55.2        35.22       30.42       
H           53.73       35.03       31.46       
H           51.85       29.35       25.83       
H           50.50812    30.39792    26.296      
H           51.03       29.0        27.2        
N           52.23       30.63       27.5        
C           53.65       32.28       28.13       
C           53.37       31.37       27.13       
C           51.64       32.91       34.04       
C           51.15       31.75       33.48       
S           52.72       33.63       32.95       
H           51.24       30.83       31.48       
H           50.38       31.07       33.89       
C           51.62       31.58       32.15       
C           52.55       32.52       31.66       
C           50.74       34.87       37.82       
C           49.97       33.8        37.36       
C           51.88       35.07       37.09       
N           49.17       32.39       35.79       
N           48.39       32.56       36.83       
N           48.85       33.28       37.88       
C           46.95       32.28       36.78       
H           52.66       35.76       37.44       
H           52.99       34.71       35.28       
H           46.90743    31.22294    36.51751    
H           46.45       32.44       37.67       
H           46.4687     32.85895    35.99179    
C           52.16       34.42       35.84       
C           50.22       33.18       36.06       
C           51.31       33.49       35.3        
C           50.08       37.65       40.54       
C           49.5        36.5        40.93       
S           50.81       37.38       38.97       
H           49.4        34.37       40.25       
H           48.97       36.36       41.88       
C           49.72       35.38       40.07       
C           50.44       35.71       38.97       
C           50.99       42.29       41.23       
C           50.46       41.11       41.63       
N           51.36       42.14       39.9        
C           51.29       40.77       39.55       
C           49.88       40.53       42.86       
O           49.72       41.05       43.94       
O           51.66       40.3        38.5        
C           49.52       38.26       43.69       
C           51.7        43.08       38.9        
H           52.76935    43.1685     38.70826    
H           51.43       42.81       37.81       
H           51.33       44.12       39.08       
H           50.07       37.32       43.65       
H           48.46714    38.04385    43.87129    
H           49.97       38.77       44.55       
N           49.74       39.15       42.55       
C           50.68       40.04       40.7        
C           50.18       38.9        41.23       
C           51.13       46.01       42.78       
C           50.23       45.23       43.39       
S           51.96       44.9        41.69       
H           49.24       43.34       43.13       
H           49.73       45.53       44.35       
C           50.01       43.97       42.84       
C           50.84       43.64       41.8        
C           53.13       49.91       43.7        
C           51.77       49.61       44.2        
C           53.62       48.95       42.84       
N           49.85       48.41       44.43       
N           49.93       49.53       45.21       
N           51.0        50.24       45.11       
C           48.8        50.17       45.75       
H           54.63       49.01       42.39       
H           53.39       47.01       41.99       
H           47.98385    49.46947    45.92683    
H           49.07       50.69       46.7        
H           48.52245    50.98911    45.08659    
C           52.9        47.73       42.61       
C           51.1        48.39       43.88       
C           51.7        47.35       43.12       
C           55.05       52.98       45.35       
C           55.97       52.28       44.54       
S           53.48       52.2        45.29       
H           55.93       50.53       43.25       
H           57.0        52.56       44.54       
C           55.35       51.23       43.83       
C           54.05       50.95       44.21       
C           54.69       57.24       47.61       
C           55.41       56.14       47.36       
N           53.5        57.04       46.88       
C           53.33       55.7        46.49       
C           56.72       55.51       47.58       
O           57.73       55.86       48.2        
O           52.34       55.26       45.85       
C           57.62       53.27       47.17       
C           52.29       57.87       46.77       
H           51.75145    57.61777    47.68348    
H           51.82       57.68       45.81       
H           52.46       59.0        46.82       
H           58.24       52.88       46.33       
H           57.21396    52.42944    47.73275    
H           58.28       53.78       47.8        
N           56.68       54.29       46.79       
C           54.69       55.2        46.53       
C           55.45       54.13       46.11       
C           55.66       60.93       48.8        
C           56.78       60.17       48.79       
S           54.29       59.93       48.39       
H           57.31       58.04       48.06       
H           57.75       60.54       49.14       
C           56.58       58.84       48.26       
C           55.23       58.52       48.1        
C           55.59       65.28       49.53       
C           54.39       64.55       49.55       
C           56.71       64.51       49.23       
N           53.07       62.74       49.32       
N           52.36       63.85       49.43       
N           53.1        64.99       49.51       
C           50.95       63.83       49.15       
H           57.73       64.99       49.25       
H           57.59       62.64       48.68       
H           50.43146    63.117      49.79098    
H           50.51       64.86       49.25       
H           50.71877    63.51928    48.13113    
C           56.66       63.13       49.02       
C           54.41       63.15       49.29       
C           55.57       62.33       49.1        
C           56.48       69.13       49.57       
C           55.11       68.99       49.75       
S           57.22       67.53       49.61       
H           53.71       67.24       49.92       
H           54.42       69.75       49.97       
C           54.7        67.61       49.69       
C           55.7        66.73       49.68       
C           56.92       73.73       48.56       
C           57.51       72.57       48.9        
N           55.55       73.53       48.82       
C           55.24       72.14       49.03       
C           58.75       71.98       49.13       
O           59.87       72.38       49.32       
O           54.02       71.79       49.21       
C           59.59       69.72       49.06       
C           54.52       74.49       49.19       
H           54.10048    74.3164     50.18094    
H           53.79       74.49       48.29       
H           54.96       75.46       49.29       
H           59.35       68.88       48.46       
H           60.04735    69.53002    50.031      
H           60.37       70.3        48.47       
N           58.5        70.6        49.32       
C           56.54       71.54       49.13       
C           57.18       70.38       49.39       
C           59.09       76.91       48.02       
C           57.85       77.14       47.49       
S           59.04       75.46       48.93       
H           56.02       75.97       47.24       
H           57.56       77.95       46.88       
C           57.03       75.98       47.64       
C           57.62       74.95       48.25       
C           62.64       79.56       48.75       
C           61.34       80.02       48.21       
C           62.63       78.21       48.76       
N           59.14       80.0        47.85       
N           59.68       81.22       47.8        
N           60.94       81.32       48.05       
C           59.0        82.3        47.08       
H           63.48       77.62       49.08       
H           61.66       76.36       48.72       
H           57.92753    82.11251    47.0275     
H           59.22       83.26       47.67       
H           59.42072    82.44024    46.0843     
C           61.49       77.37       48.55       
C           60.18       79.18       48.07       
C           60.19       77.78       48.21       
C           65.22       81.76       50.83       
C           65.07       82.37       49.66       
S           64.39       80.22       50.81       
H           64.01       82.07       47.76       
H           65.47       83.32       49.46       
C           64.22       81.66       48.76       
C           63.8        80.42       49.2        
C           67.69       84.97       53.5        
C           67.09       83.75       53.36       
N           67.72       85.52       52.26       
C           66.92       84.73       51.31       
C           66.8        82.48       54.11       
O           67.0        82.17       55.26       
O           66.52       85.14       50.17       
C           65.62       80.41       53.72       
C           68.79       86.35       51.68       
H           69.17274    85.90226    50.76286    
H           69.67       86.49       52.29       
H           68.47       87.35       51.49       
H           65.67       79.56       53.09       
H           64.59653    80.49589    54.08501    
H           66.27       80.12       54.61       
N           66.13       81.63       53.17       
C           66.6        83.51       52.01       
C           65.93       82.27       51.96       
C           69.12       85.97       56.96       
C           69.24       87.08       56.09       
S           68.45       84.59       56.16       
H           68.6        87.6        54.02       
H           69.74       87.99       56.35       
C           68.72       86.82       54.76       
C           68.23       85.54       54.67       
C           69.51       85.7        61.4        
C           70.09       86.7        60.62       
C           68.87       84.82       60.57       
N           70.56       87.98       58.79       
N           71.1        88.43       59.93       
N           70.84       87.71       61.02       
C           71.74       89.7        59.96       
H           68.44       83.94       61.09       
H           68.24       84.16       58.68       
H           72.15114    89.84177    58.96052    
H           70.99       90.56       60.2        
H           72.50286    89.74944    60.73698    
C           68.86       84.89       59.13       
C           69.92       86.88       59.22       
C           69.35       85.96       58.37       
C           70.2        84.34       64.97       
C           70.61       85.68       64.86       
S           69.4        83.91       63.5        
H           70.73       87.36       63.48       
H           71.08       86.15       65.78       
C           70.43       86.3        63.62       
C           69.77       85.47       62.8        
C           69.62       80.45       67.32       
C           69.89       81.77       67.44       
N           69.84       80.07       66.04       
C           70.14       81.17       65.22       
C           69.97       82.9        68.39       
O           69.83       83.13       69.64       
O           70.41       81.1        64.06       
C           70.27       85.32       68.08       
C           70.35       78.81       65.51       
H           71.31184    78.54514    65.9491     
H           69.65       77.97       65.69       
H           70.52       78.88       64.42       
H           69.81       86.13       67.51       
H           71.23216    85.62384    68.49235    
H           69.5        85.23       68.92       
N           70.24       84.01       67.48       
C           70.11       82.24       66.16       
C           70.24       83.56       66.18       
C           68.04       77.71       69.68       
C           68.29       78.84       70.42       
S           68.33       78.03       68.02       
H           68.96       80.89       70.04       
H           67.99       78.91       71.48       
C           68.84       79.89       69.64       
C           69.08       79.58       68.33       
C           66.18       73.9        71.36       
C           66.76       74.0        70.07       
C           66.29       75.06       72.06       
N           67.74       74.85       68.27       
N           67.37       73.6        68.14       
N           66.85       72.94       69.21       
C           67.43       72.83       66.94       
H           65.89       75.06       73.06       
H           66.94       77.22       72.25       
H           67.58572    73.46705    66.06936    
H           68.34       72.17       67.05       
H           66.49778    72.27067    66.86112    
C           66.84       76.34       71.54       
C           67.32       75.19       69.53       
C           67.37       76.47       70.21       
C           65.55       70.48       73.32       
C           65.07       70.4        72.07       
S           66.16       72.1        73.55       
H           65.0        71.62       70.2        
H           64.61       69.46       71.68       
C           65.2        71.57       71.28       
C           65.74       72.62       71.95       
C           64.39       66.02       75.05       
C           64.85       67.35       75.26       
N           64.14       65.97       73.69       
C           64.62       67.12       73.02       
C           65.25       68.3        76.29       
O           65.4        68.19       77.53       
O           64.68       67.14       71.76       
C           66.22       70.61       76.28       
C           63.19       65.14       72.95       
H           63.68831    64.33559    72.40898    
H           62.44       64.71       73.63       
H           62.69       65.77       72.19       
H           65.63       71.48       76.06       
H           67.30312    70.71482    76.21711    
H           65.97       70.37       77.31       
N           65.65       69.53       75.62       
C           65.02       68.11       74.02       
C           65.47       69.38       74.24       
C           64.02       62.81       77.43       
C           64.49       63.9        78.14       
S           63.72       63.3        75.74       
H           65.09       65.94       77.59       
H           64.8        63.95       79.19       
C           64.54       65.08       77.32       
C           64.22       64.93       76.02       
C           63.1        58.92       79.21       
C           63.39       59.07       77.82       
C           63.26       60.09       79.91       
N           64.02       60.24       76.0        
N           63.79       58.96       75.78       
N           63.29       58.23       76.71       
C           63.75       58.5        74.36       
H           63.16       60.04       80.95       
H           63.62       62.21       80.1        
H           63.89024    59.33441    73.67284    
H           64.51       57.77       74.19       
H           62.77087    58.0587     74.17383    
C           63.55       61.35       79.37       
C           63.72       60.35       77.28       
C           63.71       61.53       78.02       
C           62.47       55.17       80.42       
C           62.03       56.05       81.35       
S           63.07       56.07       79.08       
H           62.02       58.27       81.72       
H           61.66       55.77       82.32       
C           62.29       57.41       81.03       
C           62.82       57.62       79.83       
C           62.31       51.09       82.97       
C           62.67       51.7        81.75       
N           61.92       52.02       83.87       
C           61.7        53.22       83.16       
C           63.18       51.49       80.38       
O           63.63       50.51       79.84       
O           61.13       54.14       83.63       
C           63.13       52.77       78.29       
C           62.41       52.13       85.25       
H           63.26562    52.79396    85.37321    
H           62.77       51.16       85.72       
H           61.57       52.48       85.84       
H           63.48       53.74       77.94       
H           62.24771    52.47822    77.72033    
H           63.86       51.98       78.04       
N           63.01       52.82       79.75       
C           62.2        53.09       81.81       
C           62.54       53.76       80.61       
C           62.93       47.23       83.39       
C           62.27       47.75       84.53       
S           63.4        48.57       82.4        
H           61.3        49.68       85.05       
H           61.75       47.04       85.2        
C           61.94       49.15       84.4        
C           62.55       49.73       83.32       
C           63.23       43.28       81.38       
C           62.33       43.56       82.45       
C           64.11       44.41       81.18       
N           61.29       44.77       84.1        
N           60.84       43.5        83.99       
N           61.29       42.83       82.95       
C           59.65       43.07       84.74       
H           64.82       44.29       80.37       
H           64.78       46.36       81.54       
H           59.94274    43.04144    85.78957    
H           58.88       43.81       84.63       
H           59.28786    42.12845    84.32716    
C           64.08       45.63       81.93       
C           62.3        44.83       83.16       
C           63.13       45.91       82.85       
C           63.7        40.52       78.49       
C           62.62       40.16       79.24       
S           64.21       42.07       79.08       
H           61.63       40.83       81.18       
H           62.04       39.29       79.02       
C           62.4        40.99       80.42       
C           63.19       42.08       80.49       
C           63.49       38.12       74.47       
C           64.25       38.94       75.27       
N           62.35       37.66       75.16       
C           62.4        38.13       76.53       
C           65.4        39.8        75.3        
O           66.27       40.0        74.52       
O           61.39       38.0        77.21       
C           66.42       41.26       77.01       
C           61.43       36.54       74.67       
H           61.45238    35.71206    75.3786     
H           61.82       36.19       73.74       
H           60.44       36.93       74.4        
H           66.58       41.24       78.09       
H           66.34752    42.27472    76.61861    
H           67.35       40.85       76.62       
N           65.35       40.41       76.62       
C           63.55       39.04       76.51       
C           64.19       39.99       77.26       
C           63.77       37.87       70.57       
C           65.01       38.17       71.13       
S           62.56       37.81       71.86       
H           65.96       38.25       72.95       
H           65.88       38.29       70.57       
C           64.99       38.17       72.49       
C           63.84       37.86       73.13       
C           62.31       38.14       66.28       
C           61.68       37.33       67.29       
C           63.4        38.82       66.83       
N           61.13       36.51       69.3        
N           60.3        36.05       68.36       
N           60.49       36.62       67.23       
C           59.07       35.37       68.67       
H           63.94       39.4        66.13       
H           64.67       39.34       68.44       
H           58.27071    36.08365    68.86982    
H           59.27       34.64       69.45       
H           58.80994    34.7796     67.79142    
C           63.83       38.73       68.17       
C           62.07       37.26       68.67       
C           63.29       37.86       69.16       
H           61.8        23.53       9.61        
H           62.55       37.56       65.4        
