472

C           57.13       57.11       90.68       
C           56.63       57.04       89.38       
S           57.22       58.81       91.07       
H           56.2        58.48       87.72       
H           56.54       56.15       88.86       
C           56.45       58.29       88.73       
C           56.85       59.37       89.45       
C           56.47       52.76       92.56       
C           57.09       53.99       92.64       
N           55.81       52.77       91.37       
C           55.91       53.99       90.66       
C           57.98       54.67       93.41       
O           58.52       54.46       94.43       
O           55.41       54.12       89.58       
C           58.31       57.15       93.67       
C           55.56       51.61       90.52       
H           56.46417    51.41313    89.94396    
H           54.63       51.78       89.91       
H           55.34       50.64       91.07       
H           57.68       58.03       93.5        
H           59.35602    57.43783    93.5647     
H           58.19       56.73       94.75       
N           57.98       55.97       92.81       
C           56.75       54.74       91.52       
C           57.23       56.01       91.63       
C           56.74       49.46       94.84       
C           57.83       50.25       95.04       
S           55.6        50.35       93.92       
H           58.7        52.09       94.18       
H           58.76       49.88       95.53       
C           57.84       51.36       94.21       
C           56.71       51.61       93.41       
C           55.27       46.15       97.36       
C           56.45       46.89       97.69       
C           54.74       46.53       96.13       
N           57.79       48.7        97.64       
N           57.95       48.04       98.78       
N           57.23       46.92       98.8        
C           59.03       48.29       99.74       
H           53.88       46.04       95.84       
H           54.63       47.89       94.42       
H           59.11444    49.36663    99.88777    
H           58.81       47.92       100.75      
H           59.98426    47.89707    99.38917    
C           55.2        47.65       95.35       
C           56.87       48.03       96.92       
C           56.29       48.43       95.69       
C           54.38       43.42       100.07      
C           53.42       43.44       99.14       
S           55.49       44.68       99.73       
H           52.97       44.37       97.24       
H           52.55       42.75       99.22       
C           53.64       44.31       98.05       
C           54.78       45.12       98.25       
C           53.03       40.51       103.62      
C           54.08       41.14       102.95      
N           52.03       40.41       102.74      
C           52.21       41.34       101.61      
C           55.48       41.5        103.16      
O           56.24       41.3        104.02      
O           51.38       41.7        100.86      
C           57.08       42.93       101.82      
C           51.22       39.25       102.64      
H           51.40297    38.81088    101.65929   
H           50.21       39.5        102.77      
H           51.55       38.45       103.28      
H           57.09       43.94       101.57      
H           57.69996    42.3611     101.12711   
H           57.37       43.02       102.84      
N           55.71       42.42       102.01      
C           53.61       41.72       101.78      
C           54.54       42.57       101.26      
C           52.44       38.85       107.18      
C           53.75       39.1        107.02      
S           51.58       39.44       105.83      
H           55.1        39.9        105.4       
H           54.47       38.8        107.82      
C           54.1        39.64       105.75      
C           53.0        39.83       104.93      
C           50.22       37.41       110.58      
C           51.6        37.07       110.41      
C           49.67       38.22       109.61      
N           53.55       36.93       109.31      
N           53.56       36.35       110.52      
N           52.48       36.35       111.2       
C           54.6        35.39       110.73      
H           48.68       38.68       109.71      
H           49.85       39.31       107.8       
H           55.26556    35.2421     109.87956   
H           55.24       35.79       111.61      
H           54.11883    34.45597    111.02012   
C           50.39       38.61       108.47      
C           52.31       37.49       109.27      
C           51.71       38.37       108.31      
C           47.89       36.59       113.6       
C           48.78       35.55       113.41      
S           48.22       37.81       112.46      
H           50.45       35.06       112.03      
H           48.83       34.73       114.08      
C           49.74       35.75       112.36      
C           49.46       36.89       111.68      
C           45.26       35.31       117.49      
C           45.48       36.22       116.5       
N           46.34       34.39       117.45      
C           47.29       34.78       116.47      
C           44.84       37.27       115.79      
O           43.73       37.77       115.83      
O           48.37       34.09       116.32      
C           45.39       38.47       113.72      
C           46.47       33.07       118.08      
H           46.02447    32.29729    117.45348   
H           47.53       32.82       118.2       
H           46.01       33.06       119.07      
H           45.81       38.25       112.75      
H           45.62218    39.47129    114.08279   
H           44.39       38.36       113.64      
N           45.78       37.48       114.7       
C           46.65       35.86       115.76      
C           46.88       36.66       114.69      
C           42.77       35.15       120.51      
C           42.55       36.27       119.85      
S           43.76       34.14       119.63      
H           43.56       37.36       118.17      
H           41.84       36.99       120.2       
C           43.5        36.46       118.8       
C           44.27       35.38       118.55      
C           40.74       33.41       124.07      
C           40.28       34.58       123.44      
C           41.76       32.81       123.43      
N           40.3        36.32       122.03      
N           39.25       36.44       122.83      
N           39.15       35.38       123.63      
C           38.2        37.51       122.66      
H           42.19       31.91       123.87      
H           43.31       32.79       121.99      
H           38.50885    38.30318    121.97913   
H           37.32       37.08       122.33      
H           37.91187    37.92161    123.62729   
C           42.49       33.43       122.39      
C           40.96       35.23       122.4       
C           42.11       34.61       121.77      
C           39.18       31.44       127.04      
C           38.17       32.05       126.43      
S           40.72       31.94       126.38      
H           37.91       33.52       124.88      
H           37.11       31.79       126.72      
C           38.57       32.86       125.36      
C           39.94       32.82       125.11      
C           40.24       28.48       130.66      
C           39.63       29.61       130.17      
N           41.0        27.98       129.63      
C           40.64       28.66       128.43      
C           38.76       30.71       130.58      
O           38.35       31.06       131.63      
O           41.19       28.43       127.34      
C           37.79       32.77       129.45      
C           41.86       26.78       129.66      
H           41.31841    25.96762    129.17542   
H           42.2        26.57       130.65      
H           42.78       26.97       129.11      
H           37.25       33.12       128.52      
H           38.3305     33.58787    129.9265    
H           36.92       32.54       130.14      
N           38.57       31.49       129.39      
C           39.84       29.77       128.77      
C           39.12       30.86       128.34      
C           39.87       26.56       134.18      
C           39.69       27.92       134.27      
S           40.15       26.26       132.51      
H           39.86       29.77       132.96      
H           39.37       28.47       135.18      
C           39.91       28.7        133.07      
C           40.29       27.93       132.04      
C           39.23       23.23       137.07      
C           38.87       24.53       137.31      
C           39.85       23.13       135.86      
N           38.57       26.74       136.93      
N           38.19       26.3        138.11      
N           38.23       25.01       138.44      
C           38.17       27.31       139.14      
H           40.07       22.15       135.61      
H           40.53       24.01       134.02      
H           38.6659     28.17962    138.70878   
H           37.12       27.43       139.38      
H           38.73408    26.94091    139.99656   
C           40.01       24.16       134.88      
C           39.01       25.63       136.38      
C           39.65       25.44       135.13      
C           39.52       19.83       139.14      
C           38.42       20.56       139.61      
S           40.19       20.79       137.85      
H           37.43       22.51       139.22      
H           37.93       20.28       140.46      
C           38.12       21.8        138.92      
C           39.0        22.07       137.94      
C           40.13       16.14       142.22      
C           40.56       16.82       141.12      
N           39.32       16.98       142.91      
C           39.04       18.18       142.15      
C           41.38       16.61       139.89      
O           42.25       15.78       139.52      
O           38.29       19.04       142.63      
C           41.63       17.75       137.75      
C           38.75       16.86       144.23      
H           39.29773    17.4288     144.98137   
H           38.79       15.86       144.68      
H           37.69       17.08       144.13      
H           41.64       18.74       137.35      
H           41.06976    17.11075    137.06766   
H           42.64       17.42       137.86      
N           41.03       17.75       139.09      
C           39.83       18.06       140.93      
C           40.14       18.61       139.7       
C           40.72       12.33       142.06      
C           40.73       12.62       143.42      
S           40.7        13.7        141.01      
H           40.27       14.43       144.64      
H           40.76       11.82       144.19      
C           40.39       14.01       143.62      
C           40.49       14.74       142.43      
C           42.08       8.58        140.01      
C           41.57       8.59        141.39      
C           41.85       9.76        139.37      
N           41.03       9.42        143.43      
N           41.21       8.12        143.44      
N           41.59       7.6         142.3       
C           41.42       7.32        144.63      
H           42.08       9.87        138.32      
H           41.13       11.8        139.44      
H           41.01732    7.83453     145.50247   
H           40.98       6.35        144.48      
H           42.48594    7.10393     144.70202   
C           41.33       10.91       140.06      
C           41.12       9.77        142.09      
C           41.0        11.02       141.42      
C           43.77       6.06        137.57      
C           43.59       5.38        138.75      
S           43.16       7.7         137.66      
H           42.7        5.8         140.69      
H           43.93       4.38        138.88      
C           42.94       6.18        139.72      
C           42.64       7.47        139.29      
C           45.21       5.81        132.95      
C           45.36       5.52        134.27      
N           43.83       6.15        132.95      
C           43.21       6.42        134.18      
C           46.34       5.02        135.18      
O           47.53       4.78        135.03      
O           42.01       6.65        134.27      
C           46.48       4.79        137.75      
C           43.05       6.54        131.77      
H           43.05712    7.62884     131.72018   
H           42.01       6.24        131.9       
H           43.41       5.99        130.85      
H           45.95       4.09        138.32      
H           46.87404    5.6673      138.263     
H           47.35       4.26        137.4       
N           45.78       5.2         136.53      
C           44.2        5.88        135.1       
C           44.51       5.61        136.43      
C           47.07       5.17        129.53      
C           47.55       4.47        130.55      
S           45.9        6.17        130.27      
H           47.36       4.03        132.75      
H           48.29       3.71        130.22      
C           47.09       4.66        131.87      
C           46.04       5.46        131.86      
C           47.41       4.48        125.17      
C           47.63       3.48        126.15      
C           46.96       5.63        125.77      
N           47.98       2.48        128.19      
N           48.23       1.67        127.1       
N           48.01       2.17        125.92      
C           48.6        0.3         127.18      
H           46.84       6.56        125.18      
H           46.55       6.84        127.47      
H           49.15135    0.13827     128.10626   
H           47.7        -0.29       127.08      
H           49.26996    0.13979     126.33526   
C           46.76       5.81        127.16      
C           47.62       3.68        127.62      
C           47.12       4.91        128.14      
C           47.18       4.42        121.25      
C           48.17       3.57        121.59      
S           46.51       5.21        122.64      
H           48.95       2.6         123.45      
H           48.73       2.96        120.87      
C           48.35       3.42        123.01      
C           47.56       4.28        123.74      
C           48.11       5.43        116.72      
C           47.23       5.59        117.75      
N           48.85       4.31        116.86      
C           48.61       3.78        118.21      
C           46.06       6.31        118.25      
O           45.27       7.12        117.77      
O           49.21       2.79        118.62      
C           44.64       5.97        120.29      
C           49.59       3.33        115.97      
H           50.64456    3.49542     116.19056   
H           49.35       2.34        116.27      
H           49.39       3.46        114.92      
H           44.68       6.43        121.23      
H           44.07393    5.04307     120.38199   
H           44.1        6.75        119.69      
N           45.89       5.79        119.6       
C           47.6        4.63        118.76      
C           46.91       4.89        119.89      
C           47.92       8.4         114.07      
C           48.96       7.52        113.8       
S           47.16       7.77        115.53      
H           49.93       5.72        114.64      
H           49.53       7.68        112.89      
C           49.12       6.46        114.72      
C           48.18       6.36        115.67      
C           46.56       12.2        112.51      
C           47.69       11.52       111.99      
C           45.89       11.46       113.46      
N           49.32       10.09       111.94      
N           49.5        11.1        111.08      
N           48.59       12.06       111.06      
C           50.68       11.19       110.25      
H           44.96       11.79       113.86      
H           45.84       9.77        114.78      
H           51.40456    10.44412    110.57676   
H           50.43       11.13       109.17      
H           51.17697    12.1547     110.35232   
C           46.44       10.29       114.01      
C           48.11       10.29       112.47      
C           47.47       9.6         113.44      
C           44.53       15.5        111.81      
C           45.41       15.32       110.74      
S           44.53       14.08       112.76      
H           47.16       14.11       110.36      
H           45.55       16.03       109.94      
C           46.29       14.25       110.94      
C           45.94       13.46       111.97      
C           41.72       19.3        110.62      
C           41.99       18.24       111.5       
N           42.46       19.04       109.43      
C           43.42       18.03       109.62      
C           41.61       17.7        112.79      
O           40.77       18.05       113.61      
O           44.29       17.72       108.81      
C           42.6        16.1        114.38      
C           41.99       19.21       108.09      
H           42.48245    19.97682    107.49202   
H           42.15       18.32       107.58      
H           40.93       19.46       107.96      
H           43.65       16.0        114.64      
H           41.97688    15.22197    114.54994   
H           42.33       16.87       115.03      
N           42.51       16.59       112.98      
C           43.04       17.42       110.95      
C           43.45       16.51       111.91      
C           39.09       22.29       110.79      
C           39.34       21.85       112.07      
S           40.11       21.43       109.76      
H           40.64       20.36       113.03      
H           38.84       22.32       112.92      
C           40.28       20.75       112.14      
C           40.86       20.43       110.94      
C           36.93       25.53       108.97      
C           36.64       25.13       110.25      
C           37.87       24.79       108.37      
N           36.8        23.94       112.13      
N           35.99       24.97       112.19      
N           35.8        25.72       111.14      
C           35.82       25.53       113.53      
H           38.19       25.1        107.4       
H           39.12       23.24       108.31      
H           35.17786    24.85096    114.09095   
H           36.78       25.75       113.89      
H           35.26568    26.46542    113.45378   
C           38.41       23.64       108.97      
C           37.27       24.0        110.86      
C           38.28       23.35       110.23      
C           35.75       28.35       106.52      
C           35.1        28.61       107.7       
S           36.73       26.94       106.73      
H           34.97       27.83       109.7       
H           34.42       29.41       107.89      
C           35.47       27.73       108.73      
C           36.34       26.74       108.36      
C           37.04       29.05       101.97      
C           36.31       29.5        103.03      
N           37.16       27.7        102.2       
C           36.68       27.24       103.43      
C           35.73       30.65       103.62      
O           35.69       31.84       103.24      
O           36.76       26.05       103.78      
C           34.96       31.41       105.89      
C           37.79       26.62       101.42      
H           38.76754    26.37751    101.83678   
H           37.8        26.78       100.35      
H           37.17       25.74       101.49      
H           35.29       31.2        106.87      
H           33.89168    31.52028    105.70391   
H           35.53       32.32       105.57      
N           35.45       30.35       105.0       
C           36.17       28.48       104.05      
C           35.75       29.07       105.27      
C           38.96       30.76       98.85       
C           38.13       31.72       99.5        
S           38.8        29.36       99.74       
H           36.73       31.75       101.29      
H           38.18       32.79       99.3        
C           37.36       31.16       100.59      
C           37.59       29.85       100.86      
C           42.38       31.49       96.2        
C           41.75       30.24       96.31       
C           41.68       32.46       96.86       
N           40.47       28.62       97.19       
N           41.41       28.2        96.33       
N           42.23       29.06       95.84       
C           41.57       26.77       96.17       
H           42.13       33.48       96.81       
H           40.04       33.09       98.05       
H           40.84952    26.25735    96.80734    
H           41.4        26.45       95.17       
H           42.57377    26.46604    96.46689    
C           40.53       32.19       97.61       
C           40.69       29.94       97.21       
C           40.05       30.97       97.92       
C           45.8        32.9        94.66       
C           45.75       31.52       94.54       
S           44.38       33.38       95.61       
H           44.18       29.9        94.64       
H           46.49       30.98       94.08       
C           44.5        30.95       94.82       
C           43.62       31.77       95.49       
C           47.75       37.06       93.64       
C           47.98       35.77       94.09       
N           46.46       37.32       93.74       
C           45.7        36.09       93.95       
C           48.99       34.79       94.36       
O           50.19       34.85       94.45       
O           44.49       36.14       94.05       
C           49.01       32.39       95.0        
C           45.75       38.61       93.85       
H           45.31642    38.70951    94.84509    
H           44.89       38.64       93.13       
H           46.32       39.51       93.72       
H           48.76       31.51       94.43       
H           48.73388    32.14928    96.0266     
H           50.11       32.54       94.86       
N           48.29       33.49       94.58       
C           46.73       35.07       94.16       
C           46.91       33.74       94.43       
C           50.24       39.91       92.26       
C           51.0        39.07       93.12       
S           48.6        39.51       92.48       
H           50.58       37.21       94.41       
H           52.08       39.04       93.12       
C           50.19       38.01       93.71       
C           48.81       38.07       93.42       
C           51.9        43.27       89.78       
C           50.51       42.85       89.74       
C           52.69       42.38       90.62       
N           48.63       41.6        90.2        
N           48.43       42.66       89.41       
N           49.44       43.54       89.3        
C           47.06       43.0        88.95       
H           53.74       42.51       90.72       
H           52.76       40.73       92.01       
H           46.3869     43.00709    89.80731    
H           46.69       42.3        88.27       
H           47.01752    43.9699     88.45443    
C           52.08       41.3        91.36       
C           49.98       41.79       90.59       
C           50.73       41.01       91.49       
H           57.28       60.33       88.99       
H           52.15       44.35       89.62       
