472

C           80.93       27.47       58.67       
C           80.02       27.38       57.67       
S           81.9        28.9        58.42       
H           79.34       28.72       55.96       
H           79.2        26.64       57.59       
C           80.01       28.5        56.77       
C           80.99       29.42       57.11       
C           80.11       23.44       61.2        
C           80.77       24.67       61.18       
N           79.69       23.16       59.92       
C           79.99       24.24       59.0        
C           81.47       25.63       62.04       
O           81.65       25.72       63.2        
O           79.78       24.29       57.76       
C           82.57       27.81       61.51       
C           79.21       21.93       59.21       
H           78.17459    21.97502    58.87237    
H           79.48       21.05       59.77       
H           79.75       21.67       58.29       
H           82.44       28.74       60.93       
H           83.62915    27.5541     61.48157    
H           82.26       28.08       62.58       
N           81.67       26.74       61.08       
C           80.67       25.22       59.84       
C           81.21       26.49       59.77       
C           79.22       21.06       64.23       
C           79.63       22.23       64.77       
S           79.2        21.05       62.49       
H           80.27       24.15       63.94       
H           79.81       22.41       65.82       
C           79.99       23.12       63.7        
C           79.79       22.66       62.41       
C           77.29       17.58       66.25       
C           78.06       18.55       67.01       
C           77.19       17.84       64.92       
N           79.45       20.35       67.28       
N           79.27       19.56       68.35       
N           78.36       18.62       68.32       
C           80.04       19.73       69.52       
H           76.48       17.29       64.32       
H           77.69       19.15       63.25       
H           80.93162    20.31984    69.30738    
H           79.29       20.01       70.22       
H           80.27884    18.75357    69.94148    
C           77.84       19.0        64.33       
C           78.74       19.68       66.37       
C           78.61       19.96       64.97       
C           75.23       14.45       67.38       
C           75.79       14.9        68.53       
S           75.58       15.48       66.04       
H           76.86       16.75       69.05       
H           75.77       14.4        69.5        
C           76.5        16.14       68.27       
C           76.58       16.52       66.93       
C           72.48       10.87       69.26       
C           72.98       11.62       68.16       
N           72.93       11.58       70.32       
C           73.62       12.79       70.03       
C           72.85       11.7        66.7        
O           72.27       11.03       65.91       
O           74.04       13.59       70.87       
C           74.04       12.85       64.96       
C           72.9        11.2        71.78       
H           73.88686    10.78881    71.99245    
H           72.04       10.53       72.07       
H           72.93       12.08       72.4        
H           75.02       13.29       64.78       
H           73.30503    13.43657    64.40877    
H           74.15       11.8        64.6        
N           73.76       12.72       66.34       
C           73.66       12.8        68.56       
C           74.23       13.41       67.43       
C           70.15       7.69        69.23       
C           70.77       7.87        67.99       
S           70.6        9.04        70.24       
H           72.27       9.08        67.08       
H           70.66       7.25        67.12       
C           71.67       8.88        67.95       
C           71.76       9.61        69.14       
C           66.35       5.78        70.26       
C           67.36       5.99        71.31       
C           66.78       6.05        68.99       
N           69.24       6.83        72.13       
N           68.46       6.27        73.12       
N           67.26       5.83        72.67       
C           68.8        6.13        74.57       
H           66.12       5.94        68.08       
H           68.17       7.03        67.65       
H           69.82378    6.46886     74.72861    
H           68.09       6.74        75.14       
H           68.63293    5.12061     74.94591    
C           68.05       6.67        68.67       
C           68.6        6.62        70.97       
C           68.93       6.92        69.6        
C           62.53       4.72        70.52       
C           63.21       4.14        71.58       
S           63.62       5.71        69.59       
H           65.28       3.89        72.14       
H           62.69       3.43        72.21       
C           64.61       4.33        71.5        
C           65.01       5.21        70.56       
C           58.38       2.4         70.02       
C           59.09       3.6         69.88       
N           59.23       1.5         70.62       
C           60.56       2.02        70.72       
C           58.94       4.95        69.46       
O           58.03       5.66        69.16       
O           61.45       1.39        71.31       
C           60.4        6.96        69.77       
C           58.85       0.27        71.28       
H           58.16262    0.48707     72.09762    
H           58.48       -0.45       70.56       
H           59.75       -0.28       71.64       
H           61.1        7.27        69.1        
H           60.55181    7.37206     70.76763    
H           59.44       7.37        69.52       
N           60.26       5.45        69.75       
C           60.46       3.36        70.24       
C           61.16       4.46        70.1        
C           54.86       1.46        68.51       
C           54.94       2.81        68.71       
S           56.44       0.79        68.88       
H           56.28       4.31        69.44       
H           54.23       3.58        68.24       
C           56.08       3.24        69.34       
C           56.98       2.21        69.67       
C           52.21       -0.91       65.87       
C           52.96       -1.5        66.94       
C           52.28       0.51        65.87       
N           54.36       -1.59       68.63       
N           54.07       -2.81       68.24       
N           53.23       -2.8        67.27       
C           54.73       -3.99       68.76       
H           51.66       1.12        65.2        
H           53.05       2.34        66.64       
H           55.37868    -3.65861    69.57086    
H           53.96       -4.65       69.12       
H           55.27071    -4.48911    67.95587    
C           53.1        1.22        66.74       
C           53.74       -0.7        67.82       
C           53.85       0.7         67.74       
C           50.03       -2.15       62.76       
C           50.56       -3.29       63.39       
S           50.81       -0.8        63.5        
H           51.78       -3.77       65.21       
H           50.34       -4.26       63.03       
C           51.38       -3.0        64.57       
C           51.5        -1.67       64.85       
C           47.21       0.09        59.72       
C           47.96       -1.05       59.95       
N           47.28       0.91        60.81       
C           47.91       0.21        61.89       
C           48.47       -2.23       59.33       
O           48.31       -2.74       58.23       
O           47.76       0.51        63.07       
C           50.0        -4.03       60.11       
C           47.63       2.31        60.71       
H           48.70807    2.42734     60.82001    
H           47.08       2.91        61.5        
H           47.49       2.76        59.73       
H           49.94       -4.66       61.0        
H           51.05584    -3.84576    59.91159    
H           49.51       -4.58       59.3        
N           49.25       -2.82       60.39       
C           48.39       -0.96       61.25       
C           49.16       -2.0        61.55       
C           44.6        1.09        57.12       
C           45.41       0.09        56.61       
S           45.24       1.68        58.62       
H           47.23       -1.01       57.22       
H           45.11       -0.53       55.74       
C           46.55       -0.22       57.41       
C           46.56       0.49        58.53       
C           40.59       2.34        55.72       
C           41.3        1.3         55.01       
C           41.27       2.91        56.75       
N           43.02       0.0         54.57       
N           42.03       -0.18       53.74       
N           41.01       0.64        53.87       
C           41.88       -1.2        52.72       
H           40.69       3.63        57.32       
H           42.83       2.85        58.19       
H           42.65812    -1.02936    51.97601    
H           41.97       -2.21       53.2        
H           40.89143    -1.14391    52.26428    
C           42.53       2.43        57.26       
C           42.61       0.88        55.45       
C           43.29       1.49        56.62       
C           37.37       3.71        53.74       
C           37.43       4.33        54.99       
S           38.88       2.84        53.58       
H           38.58       4.19        56.87       
H           36.61       4.95        55.33       
C           38.47       3.83        55.85       
C           39.34       2.95        55.24       
C           33.19       4.91        51.5        
C           34.25       4.06        51.6        
N           33.22       5.68        52.65       
C           34.29       5.27        53.55       
C           34.96       3.07        50.88       
O           34.71       2.35        49.92       
O           34.48       5.81        54.64       
C           37.27       2.15        50.85       
C           32.37       6.82        52.99       
H           31.73183    6.55764     53.8338     
H           31.76       7.19        52.09       
H           32.98       7.66        53.31       
H           37.7        1.44        51.59       
H           37.99594    2.74908     50.30026    
H           36.72       1.49        50.19       
N           36.22       2.94        51.55       
C           35.08       4.32        52.76       
C           36.27       3.64        52.75       
C           31.9        5.72        47.94       
C           30.9        6.11        48.81       
S           33.09       4.88        48.74       
H           30.55       5.97        50.97       
H           30.06       6.62        48.47       
C           31.23       5.8         50.18       
C           32.42       5.17        50.31       
C           32.73       7.12        44.01       
C           33.09       5.8         44.38       
C           31.9        7.74        44.86       
N           33.56       4.27        45.92       
N           34.22       4.11        44.77       
N           33.93       4.92        43.75       
C           35.34       3.2         44.77       
H           31.51       8.76        44.7        
H           31.01       7.78        46.77       
H           35.44724    2.67808     45.72089    
H           35.23       2.48        43.9        
H           36.23497    3.78955     44.57112    
C           31.54       7.19        46.08       
C           32.85       5.32        45.65       
C           32.0        6.0         46.54       
C           34.06       9.44        40.91       
C           34.27       8.19        40.57       
S           33.28       9.49        42.51       
H           33.87       6.19        41.36       
H           34.83       7.91        39.68       
C           33.75       7.22        41.55       
C           33.16       7.72        42.72       
C           33.82       14.05       39.76       
C           34.4        12.84       39.56       
N           32.63       13.87       40.49       
C           32.68       12.5        41.06       
C           35.5        12.19       38.84       
O           36.36       12.55       38.13       
O           31.74       12.06       41.72       
C           36.84       10.12       39.34       
C           31.55       14.73       41.03       
H           31.7296     14.83057    42.10039    
H           30.51       14.3        40.86       
H           31.58       15.68       40.6        
H           36.54       9.05        39.21       
H           37.39392    10.33581    40.25361    
H           37.37       10.36       38.42       
N           35.57       10.82       39.34       
C           33.79       11.85       40.37       
C           34.42       10.64       40.16       
C           34.97       17.59       38.33       
C           35.47       16.56       37.59       
S           33.83       16.94       39.43       
H           35.42       14.41       37.51       
H           36.09       16.75       36.71       
C           35.11       15.29       38.0        
C           34.23       15.26       39.08       
C           35.58       21.97       37.85       
C           36.36       20.97       37.14       
C           34.58       21.38       38.65       
N           37.09       19.0        36.57       
N           37.83       19.92       35.98       
N           37.44       21.16       36.29       
C           38.53       19.64       34.78       
H           33.86       21.99       39.12       
H           33.52       19.76       39.34       
H           38.74475    18.57318    34.71765    
H           37.89       19.98       33.95       
H           39.46209    20.2049     34.79412    
C           34.37       19.98       38.75       
C           36.19       19.58       37.34       
C           35.16       19.01       38.17       
C           35.05       25.85       37.78       
C           35.97       25.59       36.84       
S           34.62       24.38       38.58       
H           37.08       23.81       36.04       
H           36.4        26.32       36.17       
C           36.36       24.22       36.77       
C           35.66       23.39       37.67       
C           35.23       30.66       38.34       
C           34.56       29.45       38.54       
N           36.12       30.4        37.33       
C           36.16       29.07       36.9        
C           33.48       28.85       39.3        
O           32.68       29.32       40.15       
O           36.86       28.65       35.96       
C           32.94       26.6        40.07       
C           36.94       31.44       36.64       
H           36.26745    32.16979    36.18925    
H           37.54       32.05       37.34       
H           37.53       31.01       35.8        
H           33.59       25.76       40.48       
H           32.0265     26.22344    39.60976    
H           32.83       27.15       41.0        
N           33.63       27.48       39.09       
C           35.15       28.39       37.75       
C           34.62       27.16       38.13       
C           33.77       33.79       40.23       
C           35.11       34.05       39.91       
S           33.28       32.26       39.54       
H           36.77       32.84       39.0        
H           35.71       34.97       40.14       
C           35.73       32.94       39.22       
C           34.88       31.85       39.09       
C           30.93       36.57       42.06       
C           32.16       36.99       41.43       
C           30.8        35.22       42.03       
N           33.99       36.89       40.2        
N           33.65       38.12       40.51       
N           32.58       38.21       41.18       
C           34.13       39.29       39.76       
H           29.85       34.82       42.33       
H           31.42       33.27       41.57       
H           35.21606    39.21192    39.71031    
H           33.62       39.3        38.78       
H           33.82847    40.22967    40.22282    
C           31.67       34.29       41.42       
C           33.03       36.13       40.79       
C           32.77       34.71       40.72       
C           28.49       39.25       43.6        
C           27.96       37.96       43.76       
S           30.03       39.11       42.75       
H           28.48       35.92       43.39       
H           26.99       37.9        44.22       
C           28.79       36.94       43.31       
C           29.91       37.33       42.69       
C           25.5        42.11       45.99       
C           26.55       42.0        45.11       
N           24.73       40.94       45.77       
C           25.52       39.92       44.99       
C           27.57       42.81       44.43       
O           27.91       44.01       44.47       
O           25.14       38.82       44.74       
C           29.56       42.28       42.99       
C           23.35       40.62       46.08       
H           23.33621    40.08894    47.03178    
H           22.67       41.48       46.17       
H           22.88       39.92       45.35       
H           29.77       41.64       42.16       
H           30.44266    42.46507    43.60217    
H           29.22       43.23       42.53       
N           28.46       41.8        43.81       
C           26.66       40.67       44.61       
C           27.88       40.53       43.98       
C           24.72       44.78       48.78       
C           25.55       45.3        47.85       
S           24.13       43.22       48.25       
H           26.51       44.62       46.01       
H           26.14       46.22       47.99       
C           25.77       44.43       46.75       
C           25.16       43.24       46.84       
C           23.87       46.28       52.93       
C           24.21       47.15       51.82       
C           23.92       44.96       52.53       
N           24.82       47.75       49.66       
N           24.8        48.79       50.52       
N           24.44       48.48       51.78       
C           25.5        50.05       50.32       
H           23.9        44.25       53.38       
H           24.1        43.4        50.98       
H           26.01881    50.07162    49.36163    
H           24.75       50.85       50.26       
H           26.17881    50.15219    51.16669    
C           24.09       44.53       51.15       
C           24.45       46.71       50.45       
C           24.27       45.34       50.06       
C           23.48       47.15       56.85       
C           24.1        48.18       56.23       
S           23.26       45.85       55.77       
H           24.8        48.63       54.24       
H           24.32       49.11       56.71       
C           24.26       47.96       54.83       
C           23.78       46.79       54.33       
C           22.64       48.87       61.29       
C           22.58       47.81       60.41       
N           23.36       49.88       60.69       
C           23.55       49.62       59.27       
C           22.15       46.45       60.31       
O           21.62       45.71       61.06       
O           23.83       50.45       58.46       
C           22.84       44.71       58.76       
C           24.29       50.76       61.38       
H           25.26513    50.28296    61.47821    
H           24.0        50.89       62.4        
H           24.44       51.74       60.92       
H           23.81       44.58       58.2        
H           22.04036    44.13982    58.28717    
H           23.03       44.32       59.74       
N           22.58       46.09       58.91       
C           23.11       48.21       59.12       
C           23.03       47.17       58.24       
C           20.38       49.81       64.24       
C           20.5        48.43       64.21       
S           21.51       50.51       63.2        
H           21.74       46.9        63.07       
H           19.78       47.81       64.84       
C           21.51       47.94       63.31       
C           22.11       48.97       62.64       
C           17.85       52.3        66.88       
C           17.51       50.96       66.57       
C           19.01       52.77       66.28       
N           17.84       48.93       65.73       
N           16.72       48.98       66.45       
N           16.55       50.12       67.08       
C           15.55       48.19       66.01       
H           19.33       53.76       66.58       
H           20.63       52.45       64.98       
H           15.88349    47.18243    65.76165    
H           14.82       48.13       66.86       
H           15.13307    48.62083    65.0997     
C           19.77       52.0        65.32       
C           18.32       50.16       65.74       
C           19.43       50.66       65.03       
C           16.17       55.23       68.99       
C           15.16       54.41       68.5        
S           17.67       54.63       68.33       
H           15.08       52.4        67.38       
H           14.11       54.51       68.79       
C           15.65       53.19       67.83       
C           17.02       53.2        67.64       
C           13.81       59.28       69.94       
C           14.89       58.48       70.2        
N           12.92       58.55       69.18       
C           13.5        57.28       68.84       
C           16.19       58.45       70.83       
O           16.83       59.34       71.34       
O           13.13       56.59       67.89       
C           18.04       56.72       71.24       
C           11.44       58.69       69.11       
H           10.88885    57.75234    69.18158    
H           11.25       59.19       68.19       
H           11.1        59.38       69.94       
H           18.93       56.52       70.66       
H           17.85213    55.75281    71.7062     
H           18.2        57.32       72.14       
N           16.86       57.19       70.48       
C           14.83       57.26       69.49       
C           16.02       56.56       69.6        
C           13.38       63.2        69.94       
C           14.42       62.86       70.72       
S           12.59       61.75       69.38       
H           15.32       61.09       71.5        
H           15.16       63.62       71.07       
C           14.55       61.42       70.91       
C           13.63       60.66       70.28       
C           12.77       66.91       67.63       
C           11.68       66.04       68.03       
C           13.93       66.51       68.23       
N           10.54       64.38       69.03       
N           9.74        65.22       68.38       
N           10.35       66.13       67.68       
C           8.53        64.74       67.78       
H           14.89       66.95       67.87       
H           15.03       65.05       69.34       
H           8.05882     65.49389    67.14934    
H           7.86        64.35       68.56       
H           8.79142     63.86391    67.18652    
C           14.02       65.36       69.07       
C           11.8        64.9        68.88       
C           13.04       64.49       69.39       
H           80.86       30.47       56.75       
H           12.7        67.37       66.65       
