472

C           0.8         48.57       18.47       
C           0.63        48.0        17.28       
S           -0.78       48.98       19.07       
H           -0.87       47.29       15.95       
H           1.42        47.7        16.67       
C           -0.68       47.86       16.84       
C           -1.61       48.14       17.8        
C           5.51        49.3        19.35       
C           4.23        49.19       19.87       
N           5.51        48.75       18.08       
C           4.12        48.41       17.72       
C           3.44        49.27       21.06       
O           3.78        49.36       22.25       
O           3.84        47.88       16.68       
C           1.09        48.95       21.63       
C           6.58        47.95       17.36       
H           6.56548     46.8975     17.64309    
H           7.64        48.33       17.55       
H           6.41        48.01       16.29       
H           0.43        48.08       21.53       
H           0.67253     49.83448    22.11116    
H           1.65        48.51       22.46       
N           2.09        49.13       20.58       
C           3.3         48.8        18.81       
C           2.02        48.78       19.2        
C           8.63        48.71       21.69       
C           8.97        49.65       20.71       
S           6.96        48.47       21.61       
H           8.0         50.5        18.92       
H           10.0        50.04       20.57       
C           7.92        49.92       19.79       
C           6.7         49.47       20.17       
C           11.1        46.39       24.47       
C           11.63       47.3        23.59       
C           9.73        46.27       24.34       
N           11.67       48.81       22.0        
N           12.85       48.5        22.43       
N           12.93       47.63       23.42       
C           13.87       49.42       22.12       
H           9.24        45.59       25.05       
H           7.85        46.84       23.53       
H           13.60079    49.93716    21.19903    
H           13.99       50.13       22.91       
H           14.79107    48.9202     21.82012    
C           8.92        47.04       23.46       
C           10.84       48.04       22.69       
C           9.46        47.93       22.57       
C           12.38       43.79       27.16       
C           13.4        44.29       26.55       
S           10.93       44.42       26.46       
H           13.89       45.86       25.1        
H           14.37       43.98       26.94       
C           13.13       45.36       25.62       
C           11.76       45.54       25.41       
C           14.24       39.97       29.27       
C           13.1        40.72       29.06       
N           15.1        40.32       28.21       
C           14.61       41.3        27.35       
C           11.81       40.96       29.6        
O           11.13       40.58       30.56       
O           15.29       41.86       26.45       
C           10.09       42.57       28.97       
C           16.16       39.51       27.58       
H           15.75289    39.05201    26.67855    
H           16.62       38.78       28.26       
H           17.02       40.16       27.37       
H           9.64        42.77       28.02       
H           10.09       43.45603    29.60487    
H           9.49        41.81       29.43       
N           11.41       42.1        28.81       
C           13.41       41.7        28.03       
C           12.42       42.65       28.06       
C           15.34       37.09       31.81       
C           14.12       37.59       32.21       
S           15.89       37.96       30.43       
H           12.79       39.21       31.55       
H           13.56       37.29       33.12       
C           13.69       38.6        31.35       
C           14.5        38.96       30.28       
C           17.77       33.65       33.08       
C           16.89       34.3        33.99       
C           17.73       34.14       31.83       
N           15.51       35.83       34.79       
N           15.91       34.99       35.69       
N           16.74       34.06       35.27       
C           16.14       35.51       37.06       
H           18.44       33.78       31.09       
H           17.0        35.74       30.43       
H           15.28533    36.08445    37.41728    
H           16.25       34.63       37.63       
H           17.06246    36.07333    37.20083    
C           16.99       35.29       31.46       
C           16.14       35.49       33.65       
C           16.19       36.04       32.32       
C           19.86       30.33       33.26       
C           19.82       30.88       34.48       
S           19.06       31.38       32.08       
H           19.04       32.73       35.45       
H           20.31       30.31       35.28       
C           19.12       32.07       34.56       
C           18.55       32.47       33.4        
C           23.0        26.75       34.06       
C           22.08       27.35       33.21       
N           23.25       27.72       35.04       
C           22.35       28.84       34.97       
C           21.43       27.14       31.98       
O           21.44       26.28       31.15       
O           22.44       29.81       35.75       
C           19.89       28.42       30.58       
C           24.36       27.93       35.94       
H           25.29724    27.89529    35.3846     
H           24.39       28.87       36.46       
H           24.24       27.25       36.81       
H           19.63       29.47       30.35       
H           18.94055    27.89335    30.67643    
H           20.53       28.03       29.79       
N           20.58       28.32       31.8        
C           21.6        28.6        33.75       
C           20.63       29.15       32.91       
C           23.54       22.84       33.75       
C           24.5        23.33       34.56       
S           22.61       24.16       33.14       
H           24.86       25.25       35.5        
H           25.13       22.75       35.17       
C           24.43       24.73       34.66       
C           23.45       25.38       33.96       
C           22.44       18.58       32.9        
C           23.49       18.94       33.78       
C           22.04       19.69       32.15       
N           24.79       20.19       35.09       
N           24.89       18.91       35.34       
N           24.14       18.07       34.6        
C           25.78       18.29       36.32       
H           21.35       19.64       31.25       
H           22.01       21.87       31.82       
H           26.09656    19.01665    37.06824    
H           25.32       17.38       36.73       
H           26.65945    17.93118    35.78529    
C           22.45       21.06       32.47       
C           23.79       20.3        34.16       
C           23.25       21.42       33.47       
C           21.71       14.84       31.7        
C           20.63       15.66       31.42       
S           22.83       15.76       32.72       
H           20.14       17.86       31.43       
H           19.77       15.35       30.91       
C           20.82       17.03       31.75       
C           21.99       17.24       32.49       
C           20.44       10.93       29.33       
C           21.36       11.53       30.12       
N           19.25       11.52       29.54       
C           19.47       12.77       30.27       
C           22.73       11.49       30.44       
O           23.62       10.7        30.19       
O           18.62       13.55       30.4        
C           24.28       12.88       31.77       
C           17.93       10.92       29.66       
H           17.73623    10.69035    30.70777    
H           17.83       9.97        29.12       
H           17.13       11.52       29.28       
H           24.15       13.49       32.66       
H           24.89727    13.3863     31.02789    
H           24.67       11.96       32.1        
N           22.98       12.7        31.22       
C           20.86       12.81       30.56       
C           21.82       13.5        31.28       
C           20.68       8.09        26.55       
C           21.6        7.85        27.5        
S           19.83       9.48        27.01       
H           22.43       8.77        29.36       
H           22.31       7.03        27.49       
C           21.71       8.81        28.59       
C           20.61       9.65        28.56       
C           20.32       6.32        22.55       
C           20.34       7.69        22.75       
C           20.32       5.59        23.72       
N           20.43       9.62        23.91       
N           20.43       9.78        22.6        
N           20.28       8.66        21.86       
C           20.18       11.08       21.97       
H           20.45       4.5         23.72       
H           20.51       5.4         25.91       
H           20.25723    11.85231    22.73529    
H           21.08       11.28       21.34       
H           19.20614    11.13087    21.48307    
C           20.43       6.13        25.06       
C           20.32       8.27        24.06       
C           20.39       7.49        25.28       
C           20.34       4.97        18.79       
C           20.27       3.88        19.63       
S           20.5        6.44        19.73       
H           20.07       3.52        21.78       
H           20.13       2.83        19.34       
C           20.17       4.21        21.01       
C           20.29       5.59        21.26       
C           21.34       3.25        14.42       
C           21.01       4.3         15.21       
N           21.43       2.13        15.26       
C           21.2        2.5         16.64       
C           20.8        5.72        15.14       
O           20.61       6.53        14.26       
O           21.16       1.68        17.54       
C           19.79       7.32        16.77       
C           21.82       0.76        15.05       
H           22.88323    0.61595     15.24207    
H           21.68       0.48        13.96       
H           21.24       0.12        15.69       
H           20.18       7.73        17.66       
H           18.71682    7.14802     16.85255    
H           20.1        8.05        16.05       
N           20.47       6.07        16.51       
C           20.89       3.91        16.57       
C           20.54       4.94        17.34       
C           22.57       3.04        10.61       
C           21.75       4.13        10.82       
S           22.54       2.14        12.07       
H           20.57       4.97        12.51       
H           21.58       4.79        9.97        
C           21.23       4.21        12.17       
C           21.56       3.22        12.98       
C           23.67       1.2         6.69        
C           24.29       0.83        7.9         
C           22.66       2.07        6.96        
N           24.72       0.68        10.09       
N           25.39       -0.26       9.41        
N           25.22       -0.18       8.08        
C           25.82       -1.59       9.97        
H           21.96       2.35        6.22        
H           21.45       3.36        8.25        
H           25.90993    -1.46549    11.04912    
H           25.15       -2.34       9.78        
H           26.77767    -1.95449    9.59837     
C           22.38       2.73        8.19        
C           23.97       1.4         9.17        
C           23.05       2.48        9.33        
C           24.55       -0.82       3.25        
C           23.46       0.05        3.11        
S           24.96       -0.76       4.92        
H           22.5        1.77        4.22        
H           23.01       0.28        2.16        
C           23.17       0.86        4.27        
C           23.82       0.48        5.38        
C           25.11       -2.66       -1.15       
C           25.61       -2.53       0.2         
N           24.03       -1.82       -1.27       
C           23.64       -1.36       0.0         
C           26.62       -3.01       1.1         
O           27.65       -3.62       0.93        
O           22.7        -0.61       0.14        
C           27.0        -2.84       3.54        
C           23.34       -1.3        -2.4        
H           22.3398     -1.72455    -2.48635    
H           23.93       -1.36       -3.35       
H           23.22       -0.23       -2.18       
H           26.42       -3.25       4.36        
H           27.71614    -2.10215    3.90169     
H           27.58       -3.63       3.22        
N           26.28       -2.46       2.4         
C           24.67       -1.74       0.97        
C           25.12       -1.68       2.24        
C           26.32       -4.56       -4.42       
C           27.36       -4.59       -3.5        
S           25.04       -3.55       -3.88       
H           27.58       -3.91       -1.38       
H           28.34       -5.05       -3.65       
C           26.94       -3.95       -2.28       
C           25.74       -3.32       -2.28       
C           25.61       -5.46       -8.77       
C           26.94       -5.24       -8.27       
C           24.59       -5.51       -7.8        
N           28.53       -4.79       -6.83       
N           28.99       -4.92       -8.03       
N           28.1        -5.12       -8.97       
C           30.29       -4.4        -8.35       
H           23.6        -5.86       -7.95       
H           23.98       -5.27       -5.73       
H           30.89195    -4.33626    -7.44353    
H           30.71       -5.13       -9.05       
H           30.24108    -3.38659    -8.74838    
C           24.85       -5.19       -6.42       
C           27.16       -5.0        -6.88       
C           26.16       -4.93       -5.89       
C           24.08       -6.64       -12.22      
C           25.43       -6.59       -12.31      
S           23.64       -6.14       -10.55      
H           27.23       -6.04       -11.14      
H           26.0        -6.91       -13.11      
C           26.15       -6.06       -11.17      
C           25.34       -5.9        -10.14      
C           22.64       -9.51       -15.86      
C           22.31       -8.62       -14.83      
N           24.04       -9.64       -15.86      
C           24.69       -8.78       -14.88      
C           21.2        -7.97       -14.14      
O           20.05       -7.98       -14.37      
O           25.9        -8.76       -14.64      
C           21.03       -6.19       -12.47      
C           24.94       -10.0       -16.91      
H           25.07532    -9.17381    -17.60799   
H           25.96       -10.19      -16.56      
H           24.67       -10.96      -17.39      
H           21.57       -5.26       -12.29      
H           20.52553    -6.6021     -11.59606   
H           20.22       -5.95       -13.25      
N           21.8        -7.13       -13.17      
C           23.52       -8.12       -14.2       
C           23.17       -7.32       -13.13      
C           19.52       -11.23      -17.68      
C           20.65       -11.47      -18.38      
S           19.98       -10.28      -16.33      
H           22.81       -11.0       -18.27      
H           20.64       -12.01      -19.3       
C           21.84       -10.82      -17.81      
C           21.63       -10.18      -16.64      
C           15.29       -11.96      -18.45      
C           16.33       -12.6       -19.22      
C           15.81       -11.2       -17.41      
N           18.38       -13.02      -19.93      
N           17.44       -13.79      -20.52      
N           16.21       -13.61      -20.13      
C           17.82       -15.06      -21.09      
H           15.18       -10.5       -16.82      
H           17.35       -10.24      -16.45      
H           18.74587    -15.42349   -20.64421   
H           16.99       -15.79      -20.98      
H           17.88407    -14.94609   -22.17214   
C           17.18       -10.97      -17.18      
C           17.72       -12.36      -19.01      
C           18.15       -11.54      -17.98      
C           11.36       -11.89      -18.21      
C           11.7        -12.3       -19.48      
S           12.83       -11.68      -17.28      
H           13.51       -12.79      -20.65      
H           10.94       -12.35      -20.29      
C           13.11       -12.51      -19.69      
C           13.87       -12.12      -18.57      
C           6.9         -10.06      -18.15      
C           7.98        -10.6       -17.46      
N           7.23        -9.95       -19.49      
C           8.53        -10.53      -19.72      
C           8.47        -10.94      -16.16      
O           7.89        -11.04      -15.09      
O           9.13        -10.48      -20.78      
C           10.38       -11.93      -15.13      
C           6.77        -8.97       -20.5       
H           6.25964     -9.48755    -21.31226   
H           6.08        -8.26       -20.1       
H           7.63        -8.38       -20.79      
H           11.45       -11.96      -15.11      
H           10.07588    -12.94374   -14.86933   
H           10.11       -11.17      -14.5       
N           9.79        -11.46      -16.39      
C           8.99        -10.98      -18.41      
C           10.13       -11.41      -17.75      
C           4.1         -7.79       -16.41      
C           3.51        -8.56       -17.37      
S           5.74        -8.23       -16.3       
H           4.15        -10.15      -18.82      
H           2.53        -8.41       -17.73      
C           4.42        -9.49       -17.99      
C           5.69        -9.52       -17.49      
C           2.71        -4.3        -14.18      
C           2.07        -4.72       -15.41      
C           3.74        -5.14       -13.76      
N           1.69        -5.89       -17.21      
N           0.96        -4.77       -17.2       
N           1.0         -4.18       -16.06      
C           0.09        -4.37       -18.32      
H           4.39        -4.81       -13.02      
H           5.03        -6.88       -14.08      
H           -0.02698    -5.22542    -18.98533   
H           -0.89       -4.07       -17.92      
H           0.52401     -3.53698    -18.87301   
C           4.18        -6.29       -14.47      
C           2.47        -5.86       -16.14      
C           3.55        -6.65       -15.69      
C           2.14        -1.16       -11.79      
C           1.43        -0.93       -12.99      
S           2.89        -2.7        -11.91      
H           1.13        -1.93       -14.89      
H           0.76        -0.09       -13.15      
C           1.62        -1.97       -13.91      
C           2.42        -3.03       -13.52      
C           0.15        2.02        -8.77       
C           1.18        1.07        -9.03       
N           -0.55       2.19        -9.95       
C           -0.03       1.31        -10.95      
C           2.32        0.47        -8.46       
O           2.88        0.64        -7.39       
O           -0.65       1.31        -11.97      
C           4.25        -0.88       -9.4        
C           -1.49       3.23        -10.41      
H           -2.51161    2.85658     -10.48046   
H           -1.02       3.73        -11.32      
H           -1.73       3.95        -9.63       
H           4.66        -0.96       -10.41      
H           4.58472     -1.72747    -8.80179    
H           4.73        0.07        -9.07       
N           2.81        -0.49       -9.46       
C           1.1         0.63        -10.37      
C           2.06        -0.35       -10.62      
C           -0.93       4.03        -5.67       
C           0.5         3.91        -5.64       
S           -1.56       3.27        -7.12       
H           1.97        2.79        -6.87       
H           1.17        4.42        -4.98       
C           0.95        3.01        -6.63       
C           0.01        2.78        -7.59       
C           -3.6        5.88        -2.65       
C           -2.17       5.74        -2.49       
C           -4.01       5.56        -3.96       
N           -0.08       5.16        -2.92       
N           -0.33       5.57        -1.73       
N           -1.5        6.04        -1.47       
C           0.39        4.92        -0.61       
H           -5.0        5.68        -4.29       
H           -3.62       4.72        -5.86       
H           1.21484     4.35794     -1.04797    
H           0.69        5.76        -0.0        
H           -0.29735    4.25506     -0.08702    
C           -3.15       5.0         -4.89       
C           -1.32       5.15        -3.5        
C           -1.81       4.63        -4.71       
C           -6.73       7.29        -0.5        
C           -5.63       7.18        0.29        
S           -6.39       6.59        -2.04       
H           -3.44       6.89        0.06        
H           -5.56       7.45        1.36        
C           -4.44       6.89        -0.46       
C           -4.61       6.45        -1.77       
C           -10.22      8.21        2.74        
C           -9.89       8.14        1.39        
N           -9.1        8.0         3.44        
C           -7.92       7.85        2.68        
C           -10.4       8.28        0.01        
O           -11.5       8.59        -0.35       
O           -6.76       7.95        3.15        
C           -9.52       7.58        -2.11       
C           -8.95       7.57        4.79        
H           -8.88848    6.48311     4.73531     
H           -9.76       7.81        5.33        
H           -8.09       7.99        5.22        
H           -9.09       6.69        -2.5        
H           -9.22488    8.35019     -2.82261    
H           -10.58      7.32        -2.2        
N           -9.22       7.85        -0.73       
C           -8.47       7.83        1.31        
C           -8.04       7.61        0.01        
C           -13.97      8.02        3.89        
C           -13.25      8.7         4.83        
S           -12.93      7.7         2.51        
H           -11.25      9.54        5.16        
H           -13.65      8.78        5.81        
C           -11.93      9.01        4.46        
C           -11.58      8.49        3.23        
C           -18.24      6.82        4.53        
C           -17.53      6.4         3.34        
C           -17.52      7.65        5.3         
N           -15.87      6.2         1.86        
N           -16.94      5.65        1.42        
N           -17.97      5.66        2.27        
C           -16.95      4.88        0.16        
H           -18.02      7.81        6.23        
H           -15.73      8.53        5.87        
H           -17.127     3.81798     0.32992     
H           -16.0       5.07        -0.41       
H           -17.75956   5.25879     -0.46388    
C           -16.16      7.96        5.08        
C           -16.19      6.77        3.06        
C           -15.39      7.55        3.98        
H           -2.46       47.47       17.89       
H           -19.36      6.79        4.61        
