472

C           85.12       91.49       9.79        
C           84.11       90.6        10.12       
S           84.51       92.86       8.99        
H           81.88       90.51       9.74        
H           84.31       89.67       10.57       
C           82.83       91.11       9.65        
C           82.85       92.36       9.13        
C           88.77       89.83       12.42       
C           88.29       90.72       11.44       
N           87.74       88.95       12.75       
C           86.5        89.32       12.06       
C           88.73       91.8        10.65       
O           89.84       92.31       10.47       
O           85.49       88.58       12.06       
C           87.57       93.68       9.71        
C           87.9        87.53       13.21       
H           87.33143    87.38421    14.12846    
H           88.9        87.26       13.51       
H           87.48       86.84       12.42       
H           86.65       94.15       10.07       
H           87.84807    93.87465    8.6742      
H           88.35       94.14       10.34       
N           87.6        92.24       9.95        
C           86.9        90.53       11.27       
C           86.49       91.43       10.37       
C           92.2        89.5        14.37       
C           92.41       90.11       13.19       
S           90.54       89.01       14.49       
H           91.36       90.69       11.35       
H           93.35       90.49       12.95       
C           91.29       90.17       12.35       
C           90.12       89.63       12.86       
C           95.14       88.73       17.53       
C           93.76       88.78       17.86       
C           95.43       88.82       16.22       
N           91.59       89.08       17.45       
N           91.86       88.89       18.69       
N           93.1        88.58       19.07       
C           90.8        89.11       19.71       
H           96.43       88.68       15.88       
H           94.93       89.16       14.23       
H           90.10278    89.86357    19.34378    
H           90.28       88.22       20.01       
H           91.26882    89.50185    20.61265    
C           94.53       88.95       15.19       
C           92.8        89.04       16.82       
C           93.14       89.09       15.43       
C           98.41       88.15       19.77       
C           97.35       87.87       20.46       
S           97.88       88.77       18.25       
H           95.1        87.88       20.21       
H           97.49       87.51       21.45       
C           96.08       88.04       19.79       
C           96.17       88.51       18.53       
C           101.47      88.95       23.29       
C           101.32      88.6        21.94       
N           100.2       89.39       23.75       
C           99.22       89.1        22.81       
C           102.04      88.24       20.73       
O           103.24      87.97       20.51       
O           98.05       89.2        22.97       
C           101.42      87.94       18.31       
C           99.8        90.33       24.78       
H           99.62851    91.25604    24.23124    
H           100.59      90.45       25.47       
H           98.87       89.91       25.32       
H           100.94      88.59       17.58       
H           101.35654   86.90354    17.97861    
H           102.44      88.19       18.21       
N           101.0       88.18       19.75       
C           99.97       88.73       21.66       
C           99.74       88.41       20.32       
C           104.55      89.21       25.8        
C           104.98      88.91       24.57       
S           102.83      89.33       25.77       
H           104.16      88.64       22.53       
H           106.05      88.75       24.32       
C           103.95      88.83       23.57       
C           102.68      89.06       24.07       
C           106.86      90.35       29.44       
C           107.56      89.93       28.26       
C           105.52      90.14       29.4        
N           107.72      89.39       26.1        
N           108.87      89.64       26.75       
N           108.84      90.03       27.99       
C           110.17      89.29       26.33       
H           104.93      90.31       30.3        
H           103.72      89.58       28.27       
H           110.15562   89.02397    25.27306    
H           110.82      90.18       26.54       
H           110.54513   88.43742    26.89611    
C           104.79      89.75       28.17       
C           106.81      89.57       27.06       
C           105.38      89.54       26.96       
C           108.08      92.22       32.58       
C           109.02      91.26       32.33       
S           106.78      92.19       31.45       
H           109.47      89.87       30.69       
H           110.03      91.21       32.84       
C           108.78      90.58       31.09       
C           107.54      90.8        30.67       
C           109.34      93.5        37.06       
C           108.62      93.72       35.94       
N           110.11      92.3        36.79       
C           109.72      91.71       35.54       
C           107.81      94.79       35.29       
O           107.65      95.99       35.62       
O           110.18      90.62       35.22       
C           107.04      95.29       33.01       
C           111.37      91.83       37.37       
H           111.20979   90.98526    38.03996    
H           112.02      91.5        36.58       
H           111.92      92.66       37.77       
H           106.05      95.0        32.61       
H           107.7195    95.47795    32.1787     
H           106.77      96.22       33.55       
N           107.6       94.28       33.98       
C           108.74      92.65       34.94       
C           108.08      93.01       33.77       
C           110.07      95.3        40.58       
C           109.14      95.99       39.85       
S           110.32      93.8        39.71       
H           108.1       95.84       37.88       
H           108.87      96.95       40.17       
C           108.86      95.46       38.56       
C           109.48      94.28       38.29       
C           111.96      96.68       44.38       
C           112.6       95.73       43.5        
C           110.81      97.09       43.86       
N           112.86      94.14       41.91       
N           113.95      94.21       42.69       
N           113.8       95.03       43.75       
C           115.0       93.24       42.61       
H           110.17      97.76       44.44       
H           109.08      96.9        42.7        
H           115.03644   92.78811    41.61876    
H           115.91      93.83       42.81       
H           114.84246   92.47377    43.36906    
C           110.17      96.64       42.72       
C           111.96      95.11       42.4        
C           110.71      95.67       41.86       
C           112.8       98.76       47.56       
C           113.92      98.69       46.77       
S           111.47      97.96       46.77       
H           114.6       97.71       44.91       
H           114.82      99.26       46.98       
C           113.81      97.85       45.61       
C           112.51      97.44       45.46       
C           110.92      100.11      51.73       
C           111.62      100.52      50.6        
N           110.47      98.82       51.44       
C           110.96      98.38       50.22       
C           112.38      101.56      49.96       
O           112.48      102.71      50.34       
O           111.0       97.23       49.83       
C           113.56      101.91      47.82       
C           109.33      98.05       52.04       
H           108.58073   97.86989    51.26912    
H           108.84      98.63       52.83       
H           109.67      97.11       52.44       
H           113.25      101.72      46.73       
H           114.64349   101.94762   47.93286    
H           113.11      102.9       47.94       
N           112.96      101.0       48.77       
C           111.72      99.47       49.7        
C           112.62      99.69       48.68       
C           110.94      101.36      55.41       
C           111.21      102.37      54.57       
S           110.68      99.94       54.47       
H           111.17      102.86      52.41       
H           111.42      103.33      54.95       
C           111.11      102.07      53.16       
C           110.85      100.75      52.97       
C           111.11      101.47      59.83       
C           110.4       100.45      59.13       
C           111.85      102.38      58.96       
N           109.58      99.44       57.33       
N           109.22      98.83       58.46       
N           109.66      99.43       59.58       
C           108.93      97.42       58.4        
H           112.58      102.99      59.48       
H           112.44      103.13      57.02       
H           108.44645   97.20089    57.44802    
H           109.87      96.86       58.53       
H           108.32173   97.17245    59.26996    
C           111.88      102.37      57.52       
C           110.4       100.43      57.69       
C           111.08      101.37      56.88       
C           111.87      102.09      63.75       
C           111.01      101.02      63.65       
S           112.07      102.79      62.13       
H           109.83      100.1       62.09       
H           110.89      100.44      64.49       
C           110.64      100.77      62.33       
C           111.2       101.55      61.35       
C           114.15      104.91      66.88       
C           113.14      104.06      66.62       
N           114.98      104.77      65.77       
C           114.49      104.03      64.71       
C           111.87      103.63      67.14       
O           111.22      103.98      68.18       
O           115.05      103.84      63.61       
C           109.85      103.39      65.72       
C           116.45      105.01      65.71       
H           116.97714   104.05822   65.77589    
H           116.78      105.56      66.56       
H           116.69      105.52      64.74       
H           109.42      102.81      64.94       
H           109.66753   104.46379   65.67789    
H           109.33      103.02      66.56       
N           111.27      103.04      65.96       
C           113.25      103.54      65.26       
C           112.15      102.78      64.93       
C           114.82      107.51      69.69       
C           113.96      106.54      70.15       
S           115.27      107.14      68.08       
H           113.01      104.69      69.43       
H           113.49      106.63      71.11       
C           113.71      105.49      69.26       
C           114.37      105.68      68.09       
C           117.03      110.8       71.55       
C           116.32      109.92      72.39       
C           116.84      110.66      70.22       
N           114.83      108.21      72.75       
N           115.35      108.75      73.82       
N           116.18      109.77      73.7        
C           114.61      108.54      75.01       
H           117.3       111.39      69.54       
H           116.15      109.55      68.54       
H           113.75277   107.90422   74.78855    
H           115.33      108.16      75.77       
H           114.27944   109.51699   75.3626     
C           116.11      109.6       69.63       
C           115.47      108.91      71.76       
C           115.41      108.68      70.37       
C           119.47      113.37      73.3        
C           119.21      113.77      71.98       
S           118.52      111.93      73.57       
H           117.82      113.3       70.28       
H           119.73      114.65      71.6        
C           118.21      113.04      71.3        
C           117.77      111.93      72.02       
C           122.59      113.58      76.93       
C           122.34      113.75      75.54       
N           121.39      113.16      77.54       
C           120.33      113.15      76.52       
C           123.04      113.95      74.24       
O           124.16      114.18      73.96       
O           119.17      112.91      76.83       
C           122.27      113.32      71.97       
C           121.23      112.2       78.61       
H           121.15951   111.19203   78.20117    
H           120.27      112.39      79.05       
H           122.02      112.25      79.35       
H           121.84      113.81      71.12       
H           122.18765   112.23574   72.04549    
H           123.34      113.65      71.8        
N           121.95      113.82      73.22       
C           120.97      113.55      75.27       
C           120.76      113.72      73.89       
C           126.27      113.03      78.16       
C           125.52      113.44      79.2        
S           125.28      112.87      76.76       
H           123.41      114.19      79.51       
H           125.89      113.7       80.13       
C           124.12      113.66      78.86       
C           123.87      113.47      77.57       
C           130.31      111.31      77.96       
C           129.69      111.87      76.82       
C           129.69      111.59      79.16       
N           128.02      112.88      75.68       
N           128.99      112.46      74.89       
N           130.03      111.93      75.49       
C           128.73      112.4       73.42       
H           130.11      111.18      80.1        
H           128.0       112.34      80.22       
H           127.77912   112.88633   73.20224    
H           129.64      112.99      73.06       
H           128.89158   111.38839   73.04767    
C           128.44      112.29      79.26       
C           128.4       112.5       76.92       
C           127.7       112.76      78.16       
C           133.69      109.32      77.08       
C           133.16      108.82      78.22       
S           132.68      110.7       76.62       
H           131.32      109.17      79.52       
H           133.65      108.03      78.74       
C           131.95      109.47      78.66       
C           131.53      110.48      77.85       
C           137.39      106.55      75.64       
C           136.56      107.63      75.46       
N           137.0       105.94      76.81       
C           135.91      106.71      77.45       
C           136.43      108.7       74.57       
O           137.04      109.02      73.58       
O           135.43      106.41      78.5        
C           134.68      110.4       74.26       
C           137.26      104.63      77.32       
H           138.24892   104.57225   77.77476    
H           136.65      104.38      78.19       
H           137.03      103.8       76.52       
H           134.57      111.33      74.77       
H           133.86948   109.96963   73.67183    
H           135.49      110.7       73.56       
N           135.25      109.42      75.11       
C           135.64      107.81      76.55       
C           134.81      108.9       76.33       
C           140.39      105.23      73.27       
C           139.3       105.61      72.5        
S           139.81      105.27      74.87       
H           137.3       106.49      72.82       
H           139.37      105.68      71.41       
C           138.25      106.13      73.23       
C           138.34      106.06      74.62       
C           144.39      103.57      72.36       
C           143.3       103.43      71.47       
C           144.06      104.3       73.5        
N           141.16      103.52      70.79       
N           141.97      102.9       69.91       
N           143.26      102.88      70.19       
C           141.43      102.19      68.79       
H           144.83      104.44      74.25       
H           142.61      105.18      74.78       
H           140.34288   102.25794   68.83077    
H           141.87      102.55      67.88       
H           141.74287   101.14952   68.87731    
C           142.79      104.75      73.77       
C           142.02      103.84      71.8        
C           141.68      104.61      72.97       
C           148.03      103.62      70.88       
C           148.09      103.1       72.11       
S           146.36      104.04      70.45       
H           146.64      102.59      73.74       
H           149.01      102.75      72.61       
C           146.8       103.02      72.77       
C           145.79      103.32      71.95       
C           152.0       102.3       68.55       
C           150.9       103.04      68.61       
N           152.16      101.69      69.78       
C           151.0       101.88      70.5        
C           150.21      103.99      67.84       
O           150.59      104.53      66.82       
O           150.75      101.26      71.55       
C           148.03      105.02      68.05       
C           152.82      100.41      70.08       
H           153.75786   100.54813   70.618      
H           152.11      99.84       70.65       
H           153.02      99.8        69.13       
H           147.5       105.75      68.67       
H           147.44077   104.31152   67.46779    
H           148.56      105.69      67.35       
N           149.11      104.38      68.73       
C           150.24      102.89      69.87       
C           149.09      103.6       69.89       
C           155.08      101.95      65.99       
C           154.03      102.6       65.37       
S           154.56      101.49      67.62       
H           151.8       102.85      65.73       
H           154.08      102.87      64.37       
C           152.82      102.59      66.15       
C           152.95      102.21      67.45       
C           159.09      100.62      64.59       
C           158.28      101.4       63.79       
C           158.57      100.42      65.85       
N           156.42      102.61      63.19       
N           157.48      102.65      62.31       
N           158.57      101.88      62.52       
C           157.23      103.49      61.09       
H           159.21      99.87       66.66       
H           157.05      100.66      67.37       
H           156.20273   103.85382   61.1114     
H           157.96      104.28      60.97       
H           157.39494   102.91957   60.17594    
C           157.31      100.87      66.31       
C           156.96      101.88      64.22       
C           156.46      101.57      65.52       
C           162.8       99.27       64.4        
C           162.61      100.16      63.37       
S           161.31      99.34       65.38       
H           161.05      101.46      62.54       
H           163.36      100.4       62.61       
C           161.3       100.72      63.29       
C           160.4       100.2       64.19       
C           167.26      97.52       63.56       
C           166.09      97.6        64.33       
N           167.06      98.45       62.5        
C           165.7       98.98       62.57       
C           165.51      97.13       65.61       
O           165.94      96.36       66.5        
O           165.32      99.79       61.77       
C           163.26      97.02       66.61       
C           167.8       98.77       61.37       
H           168.2136    99.76835    61.51262    
H           167.14      98.72       60.55       
H           168.65      98.08       61.2        
H           162.34      96.74       66.13       
H           163.17388   97.6731     67.47841    
H           163.64      96.03       66.83       
N           164.19      97.65       65.65       
C           165.08      98.43       63.76       
C           163.98      98.5        64.61       
C           170.56      95.26       63.91       
C           169.68      94.99       64.91       
S           169.8       96.47       62.94       
H           167.8       95.48       65.5        
H           169.83      94.2        65.65       
C           168.55      95.75       64.81       
C           168.39      96.67       63.84       
C           173.74      92.62       62.55       
C           173.61      93.95       62.11       
C           172.87      92.31       63.55       
N           172.78      96.03       61.96       
N           173.83      95.89       61.14       
N           174.4       94.69       61.28       
C           174.47      97.14       60.68       
H           172.97      91.4        64.08       
H           171.23      92.73       64.69       
H           173.77033   97.97532    60.65144    
H           175.35      97.26       61.35       
H           174.87502   97.02428    59.67468    
C           171.8       93.13       63.91       
C           172.65      94.85       62.59       
C           171.68      94.44       63.46       
C           175.93      89.45       61.61       
C           176.55      90.63       61.18       
S           174.48      89.99       62.39       
H           176.28      92.87       61.36       
H           177.53      90.55       60.78       
C           175.94      91.86       61.52       
C           174.77      91.66       62.1        
C           178.46      85.96       59.3        
C           177.57      86.33       60.21       
N           179.11      87.15       58.85       
C           178.31      88.28       59.18       
C           176.74      85.8        61.24       
O           176.51      84.6        61.58       
O           178.54      89.41       58.64       
C           174.65      86.6        62.28       
C           180.55      87.34       58.55       
H           180.9119    88.13209    59.20553    
H           180.65      87.5        57.47       
H           181.19      86.49       58.81       
H           173.79      87.07       61.79       
H           174.67827   86.73428    63.36133    
H           174.5       85.56       62.18       
N           175.92      86.93       61.65       
C           177.32      87.77       60.22       
C           176.31      88.1        61.13       
C           179.35      82.07       58.96       
C           179.89      82.81       57.98       
S           178.51      83.13       60.0        
H           179.92      84.91       57.28       
H           180.55      82.36       57.24       
C           179.62      84.17       57.97       
C           178.9       84.56       59.04       
C           179.33      77.68       60.04       
C           179.76      78.15       58.74       
C           178.96      78.73       60.86       
N           180.23      79.65       57.11       
N           180.45      78.36       56.78       
N           180.3       77.43       57.75       
C           181.15      77.98       55.52       
H           178.67      78.51       61.9        
H           178.5       80.74       61.27       
H           181.67747   78.81285    55.05499    
H           180.34      77.54       54.91       
H           181.8773    77.18915    55.70359    
C           178.89      80.08       60.48       
C           179.74      79.55       58.41       
C           179.36      80.63       59.28       
H           82.02       93.04       9.35        
H           179.44      76.64       60.38       
