472

C           80.72       77.12       8.84        
C           81.05       75.82       8.64        
S           81.23       77.61       10.38       
H           82.22       74.25       9.68        
H           80.69       75.3        7.77        
C           81.86       75.23       9.68        
C           82.09       76.07       10.7        
C           77.09       77.89       5.8         
C           78.09       78.38       6.57        
N           77.2        76.54       5.8         
C           78.23       76.07       6.68        
C           78.65       79.6        7.01        
O           78.5        80.81       6.7         
O           78.59       74.96       6.95        
C           80.86       80.13       7.94        
C           76.18       75.56       5.48        
H           76.52905    74.82629    4.75341     
H           75.23       75.95       5.11        
H           75.86       75.15       6.41        
H           81.86       79.75       7.86        
H           80.83063    80.73948    8.8432      
H           80.64       80.91       7.21        
N           79.74       79.18       7.84        
C           78.78       77.31       7.24        
C           79.76       77.83       8.12        
C           74.85       80.59       3.93        
C           74.87       79.4        3.23        
S           75.63       80.38       5.45        
H           75.68       77.37       3.47        
H           74.33       79.18       2.3         
C           75.6        78.35       3.91        
C           76.12       78.71       5.1         
C           73.03       84.16       2.32        
C           73.4        84.07       3.64        
C           73.23       83.03       1.61        
N           74.3        83.09       5.51        
N           73.74       84.27       5.77        
N           73.2        84.87       4.73        
C           73.47       84.68       7.12        
H           73.02       83.03       0.58        
H           73.99       81.0        1.44        
H           74.08699    84.15314    7.8479      
H           73.65       85.75       7.15        
H           72.40299    84.57186    7.31466     
C           73.86       81.87       2.08        
C           74.06       82.91       4.18        
C           74.34       81.81       3.43        
C           71.37       87.08       0.14        
C           71.26       87.44       1.46        
S           72.15       85.55       0.07        
H           71.75       86.49       3.46        
H           70.88       88.38       1.89        
C           71.78       86.41       2.39        
C           72.29       85.29       1.77        
C           69.77       91.07       -2.13       
C           70.27       89.77       -2.21       
N           70.03       91.47       -0.81       
C           70.48       90.38       -0.02       
C           70.67       88.72       -3.12       
O           70.66       88.67       -4.33       
O           70.54       90.55       1.19        
C           71.71       86.48       -3.04       
C           70.26       92.83       -0.32       
H           69.65       93.10271    0.54118     
H           70.11       93.56       -1.05       
H           71.31       92.73       -0.0        
H           71.4        85.51       -2.72       
H           72.78529    86.63667    -3.12545    
H           71.35       86.62       -4.04       
N           71.08       87.61       -2.34       
C           70.65       89.27       -0.91       
C           71.02       87.95       -0.95       
C           68.63       93.9        -4.63       
C           69.28       92.95       -5.39       
S           68.48       93.43       -3.0        
H           70.42       91.04       -4.94       
H           69.46       93.05       -6.43       
C           69.84       91.91       -4.58       
C           69.53       92.06       -3.2        
C           66.48       97.68       -5.51       
C           67.53       97.57       -4.53       
C           66.18       96.41       -6.07       
N           69.38       96.72       -3.54       
N           69.1        97.99       -3.17       
N           68.15       98.54       -3.8        
C           69.34       98.28       -1.83       
H           65.28       96.37       -6.62       
H           66.6        94.29       -6.21       
H           70.20061    97.68745    -1.51962    
H           69.46       99.4        -1.79       
H           68.43329    98.00945    -1.2889     
C           66.88       95.22       -5.65       
C           68.33       96.4        -4.28       
C           68.03       95.18       -4.94       
C           64.83       101.34      -5.46       
C           64.01       100.45      -6.17       
S           66.2        100.36      -4.97       
H           64.03       98.28       -6.75       
H           63.09       100.75      -6.62       
C           64.47       99.07       -6.24       
C           65.65       98.86       -5.61       
C           63.17       105.79      -6.23       
C           64.07       104.96      -5.58       
N           62.39       105.02      -7.01       
C           62.89       103.66      -7.1        
C           65.2        104.97      -4.66       
O           65.61       105.75      -3.86       
O           62.36       102.84      -7.83       
C           66.59       103.19      -3.62       
C           61.01       105.25      -7.22       
H           60.51282    105.33403   -6.25364    
H           60.93       106.12      -7.89       
H           60.6        104.43      -7.78       
H           67.23       102.49      -4.06       
H           66.14475    102.80938   -2.70077    
H           67.26       104.06      -3.48       
N           65.55       103.59      -4.55       
C           63.92       103.64      -6.09       
C           64.68       102.76      -5.36       
C           62.83       109.75      -6.4        
C           63.5        109.33      -5.25       
S           62.56       108.32      -7.38       
H           64.15       107.52      -4.28       
H           63.82       110.02      -4.47       
C           63.67       107.94      -5.1        
C           63.03       107.2       -6.08       
C           62.48       113.91      -8.09       
C           61.95       112.78      -8.73       
C           63.18       113.53      -6.99       
N           61.46       110.61      -9.13       
N           60.87       111.44      -10.01      
N           61.11       112.76      -9.82       
C           60.35       110.9       -11.27      
H           63.69       114.38      -6.51       
H           63.84       112.13      -5.58       
H           60.30646    109.81147   -11.23372   
H           59.36       111.32      -11.44      
H           61.08176    111.17262   -12.03046   
C           63.25       112.25      -6.39       
C           62.05       111.42      -8.18       
C           62.77       111.09      -7.02       
C           62.72       117.9       -8.6        
C           62.06       117.38      -9.62       
S           63.04       116.61      -7.5        
H           61.32       115.44      -10.39      
H           61.83       118.04      -10.47      
C           61.74       115.97      -9.56       
C           62.38       115.38      -8.48       
C           64.28       122.25      -9.84       
C           64.05       121.33      -8.83       
N           63.88       121.68      -11.05      
C           63.21       120.44      -10.84      
C           64.22       121.11      -7.46       
O           64.68       121.82      -6.6        
O           62.49       119.81      -11.57      
C           63.28       119.37      -5.93       
C           63.99       122.39      -12.36      
H           63.97581    121.73719   -13.23278   
H           64.93       122.82      -12.45      
H           63.22       123.18      -12.57      
H           63.83       118.49      -5.61       
H           62.2189     119.37712   -5.68075    
H           63.89       120.14      -5.39       
N           63.56       119.83      -7.27       
C           63.41       120.2       -9.44       
C           63.21       119.24      -8.46       
C           67.04       125.05      -8.92       
C           66.37       125.37      -10.1       
S           66.33       123.51      -8.41       
H           64.68       124.66      -11.36      
H           66.6        126.26      -10.58      
C           65.27       124.53      -10.47      
C           65.15       123.4       -9.63       
C           70.9        126.66      -7.33       
C           70.04       125.83      -6.5        
C           70.24       127.02      -8.45       
N           68.38       124.43      -6.03       
N           69.28       124.43      -5.08       
N           70.26       125.29      -5.24       
C           69.5        123.4       -4.07       
H           70.78       127.63      -9.24       
H           68.74       126.84      -9.85       
H           68.55309    123.07494   -3.63895    
H           69.93       122.56      -4.59       
H           70.20217    123.74761   -3.31222    
C           69.01       126.54      -8.85       
C           68.79       125.23      -7.02       
C           68.21       125.63      -8.22       
C           74.5        128.27      -6.47       
C           74.25       127.16      -5.74       
S           73.19       128.45      -7.61       
H           72.53       125.93      -5.24       
H           74.93       126.82      -4.95       
C           72.9        126.64      -5.97       
C           72.19       127.15      -7.0        
C           78.95       129.58      -4.91       
C           77.81       129.86      -5.63       
N           78.86       128.3       -4.43       
C           77.65       127.67      -4.96       
C           77.09       130.96      -6.34       
O           77.45       132.05      -6.67       
O           77.25       126.55      -4.56       
C           74.91       131.24      -7.59       
C           80.0        127.41      -4.19       
H           80.26779    126.8889    -5.10916    
H           79.81       126.78      -3.37       
H           80.89       127.83      -3.81       
H           73.89       131.03      -7.22       
H           75.07244    131.00693   -8.64233    
H           75.1        132.31      -7.51       
N           75.77       130.4       -6.69       
C           76.92       128.71      -5.73       
C           75.72       129.03      -6.4        
C           81.98       131.89      -3.68       
C           81.29       132.5       -4.72       
S           81.33       130.27      -3.56       
H           79.52       132.05      -5.98       
H           81.57       133.48      -5.17       
C           80.15       131.8       -5.19       
C           80.01       130.54      -4.69       
C           85.77       132.98      -1.54       
C           84.68       132.29      -0.9        
C           85.52       133.24      -2.92       
N           82.7        131.3       -0.76       
N           83.39       131.23      0.41        
N           84.53       131.91      0.4         
C           82.93       130.77      1.74        
H           86.33       133.69      -3.54       
H           84.26       133.31      -4.61       
H           82.00316    130.21117   1.61051     
H           83.64       130.05      2.22        
H           82.70426    131.65181   2.33963     
C           84.3        132.92      -3.6        
C           83.52       131.92      -1.65       
C           83.25       132.24      -3.03       
C           88.61       134.12      0.94        
C           88.83       134.71      -0.26       
S           87.38       132.87      0.81        
H           87.79       134.83      -2.17       
H           89.67       135.38      -0.42       
C           87.84       134.43      -1.23       
C           86.91       133.53      -0.83       
C           92.75       134.96      3.5         
C           91.5        134.49      3.39        
N           93.01       135.52      2.25        
C           91.94       135.3       1.27        
C           90.49       133.88      4.19        
O           90.45       133.58      5.39        
O           91.95       135.6       0.1         
C           88.15       133.13      3.98        
C           94.09       136.4       1.89        
H           93.68695    137.41116   1.83343     
H           94.46       136.07      0.95        
H           94.93       136.42      2.62        
H           87.64       132.38      3.46        
H           87.43735    133.93529   4.15816     
H           88.44       132.73      4.96        
N           89.36       133.7       3.37        
C           90.85       134.68      2.08        
C           89.61       134.11      2.03        
C           95.64       134.67      6.22        
C           94.42       134.46      6.76        
S           95.35       134.99      4.55        
H           92.3        134.4       6.2         
H           94.36       134.01      7.69        
C           93.26       134.62      5.88        
C           93.61       135.0       4.61        
C           99.46       133.57      7.93        
C           99.45       134.49      6.89        
C           98.25       133.12      8.36        
N           98.52       135.73      5.22        
N           99.82       135.77      5.23        
N           100.42      135.16      6.23        
C           100.58      136.71      4.43        
H           98.14       132.24      9.03        
H           96.09       133.24      8.29        
H           100.0814    136.75336   3.4617      
H           100.59      137.64      4.9         
H           101.57784   136.29246   4.29554     
C           97.04       133.58      7.85        
C           98.21       134.89      6.3         
C           96.96       134.39      6.78        
C           102.04      131.64      10.17       
C           102.78      132.46      9.31        
S           100.41      131.93      9.86        
H           102.39      133.84      7.64        
H           103.9       132.5       9.35        
C           102.03      133.17      8.34        
C           100.68      132.97      8.48        
C           101.82      129.2       14.19       
C           102.54      129.47      13.07       
N           100.87      130.27      14.27       
C           100.87      131.1       13.16       
C           103.59      128.96      12.16       
O           104.34      127.96      12.19       
O           100.15      132.07      13.0        
C           104.12      129.32      9.77        
C           100.0       130.67      15.42       
H           100.60868   131.24409   16.11859    
H           99.32       131.41      15.03       
H           99.4        129.91      15.83       
H           104.7       130.22      9.46        
H           103.4898    129.00852   8.93698     
H           104.85      128.55      10.09       
N           103.4       129.7       10.98       
C           101.92      130.52      12.32       
C           102.5       130.72      11.11       
C           101.51      126.18      16.68       
C           102.82      126.31      16.21       
S           100.69      127.68      16.19       
H           104.01      127.56      14.73       
H           103.42      125.42      16.32       
C           103.16      127.46      15.39       
C           102.07      128.22      15.24       
C           99.31       122.8       18.45       
C           98.67       123.97      18.04       
C           100.71      122.86      18.35       
N           98.58       126.13      17.54       
N           97.46       125.64      17.96       
N           97.39       124.36      18.31       
C           96.5        126.59      18.49       
H           101.34      122.09      18.76       
H           102.57      123.89      17.75       
H           96.76624    127.61291   18.22376    
H           95.56       126.32      18.01       
H           96.45671    126.46735   19.57221    
C           101.47      123.95      17.78       
C           99.42       125.12      17.63       
C           100.8       125.13      17.47       
C           96.74       120.18      20.12       
C           97.7        119.49      19.44       
S           97.08       121.83      19.86       
H           99.64       119.88      18.51       
H           97.64       118.42      19.29       
C           98.74       120.29      18.92       
C           98.57       121.67      19.03       
C           93.76       116.76      21.86       
C           94.01       118.1       21.61       
N           94.65       116.06      21.1        
C           95.64       116.9       20.46       
C           93.57       119.41      22.02       
O           92.63       119.78      22.73       
O           96.6        116.46      19.8        
C           94.62       121.66      21.98       
C           94.47       114.79      20.49       
H           95.17909    114.06701   20.89321    
H           93.42       114.44      20.63       
H           94.53       114.82      19.43       
H           94.99       122.48      21.32       
H           95.20792    121.64566   22.89774    
H           93.61       121.85      22.27       
N           94.6        120.29      21.43       
C           95.23       118.26      20.85       
C           95.61       119.59      20.76       
C           90.36       115.71      23.45       
C           91.24       114.7       23.66       
S           91.15       117.02      22.64       
H           93.45       114.34      23.17       
H           91.01       113.69      24.04       
C           92.54       114.99      23.15       
C           92.63       116.24      22.59       
C           86.08       116.12      24.38       
C           86.74       114.84      24.19       
C           86.91       117.22      24.02       
N           88.4        113.36      24.06       
N           87.25       112.8       24.41       
N           86.23       113.59      24.59       
C           87.23       111.37      24.77       
H           86.47       118.22      24.1        
H           88.78       117.96      23.35       
H           88.04386    110.89699   24.22047    
H           87.45       111.38      25.84       
H           86.27529    110.89957   24.53478    
C           88.22       117.02      23.51       
C           88.08       114.66      23.91       
C           88.85       115.77      23.59       
C           82.3        116.85      25.16       
C           82.46       115.54      24.88       
S           83.81       117.63      24.99       
H           83.99       114.05      24.39       
H           81.66       114.89      24.91       
C           83.74       115.11      24.59       
C           84.64       116.16      24.57       
C           79.0        120.31      25.97       
C           79.3        118.96      25.74       
N           80.15       120.95      25.69       
C           81.26       120.05      25.56       
C           78.59       117.7       25.64       
O           77.43       117.39      25.72       
O           82.42       120.49      25.43       
C           79.26       115.46      25.6        
C           80.25       122.41      25.44       
H           80.65664    122.62785   24.45244    
H           80.94       122.9       26.13       
H           79.3        122.99      25.55       
H           79.95       114.88      26.17       
H           78.94121    114.99953   24.66489    
H           78.52       115.42      26.4        
N           79.7        116.82      25.44       
C           80.69       118.73      25.54       
C           80.96       117.42      25.33       
C           75.46       122.16      26.73       
C           75.34       121.01      25.94       
S           77.18       122.23      27.09       
H           76.6        119.44      24.89       
H           74.33       120.72      25.56       
C           76.52       120.3       25.56       
C           77.65       120.91      25.96       
C           72.11       124.43      28.71       
C           73.4        125.0       28.58       
C           71.98       123.17      28.12       
N           75.59       124.96      28.12       
N           75.15       126.1       28.59       
N           73.9        126.14      29.08       
C           75.8        127.4       28.2        
H           71.09       122.6       28.28       
H           72.9        121.4       27.2        
H           76.63788    127.17336   27.54069    
H           74.99       128.0       27.7        
H           75.98662    128.03164   29.06851    
C           73.04       122.48      27.47       
C           74.47       124.27      27.85       
C           74.32       122.99      27.27       
C           69.27       126.1       30.89       
C           68.69       125.27      30.0        
S           70.94       126.06      30.72       
H           69.44       123.86      28.4        
H           67.61       125.09      30.0        
C           69.63       124.66      29.15       
C           70.93       125.0       29.36       
C           65.25       127.99      33.17       
C           66.65       127.84      33.07       
N           64.73       127.4       32.04       
C           65.79       126.71      31.29       
C           67.85       128.09      33.78       
O           68.03       128.62      34.86       
O           65.61       125.95      30.35       
C           70.22       127.7       33.58       
C           63.37       127.38      31.59       
H           63.21582    127.5562    30.52544    
H           62.82       128.19      32.12       
H           62.94       126.39      31.76       
H           70.81       127.9       32.69       
H           70.7334     126.96755   34.20293    
H           70.22       128.53      34.15       
N           68.89       127.46      33.05       
C           67.05       127.01      31.93       
C           68.42       126.84      31.86       
C           63.25       129.71      36.2        
C           64.42       130.35      35.92       
S           63.15       128.47      35.01       
H           66.14       130.18      34.5        
H           64.71       131.25      36.43       
C           65.13       129.82      34.84       
C           64.57       128.81      34.14       
C           60.29       130.62      39.24       
C           60.5        129.32      38.83       
C           60.86       131.57      38.41       
N           61.59       127.67      37.86       
N           60.58       127.2       38.59       
N           59.83       128.12      39.18       
C           60.34       125.8       38.91       
H           60.61       132.58      38.31       
H           62.09       132.07      36.9        
H           59.39798    125.37181   38.56745    
H           60.47       125.73      40.0        
H           61.16305    125.27436   38.42586    
C           61.68       131.22      37.34       
C           61.48       128.95      37.87       
C           62.14       129.93      37.1        
H           83.09       76.04       11.11       
H           59.31       130.9       39.6        
