472

C           59.76       44.58       48.49       
C           60.88       45.28       48.85       
S           58.44       45.16       49.45       
H           61.2        47.15       50.06       
H           61.94       44.98       48.6        
C           60.56       46.49       49.56       
C           59.28       46.53       50.06       
C           61.42       40.17       47.9        
C           60.41       41.07       47.69       
N           62.37       40.81       48.82       
C           62.11       42.18       48.94       
C           59.09       41.18       47.13       
O           58.36       40.46       46.44       
O           62.84       42.88       49.58       
C           57.5        43.13       46.89       
C           63.37       40.21       49.77       
H           64.37547    40.41254    49.40108    
H           63.31       39.12       49.7        
H           63.28       40.55       50.78       
H           57.54       44.15       46.64       
H           56.68339    42.8821     47.56808    
H           57.25       42.63       45.94       
N           58.73       42.57       47.43       
C           60.8        42.33       48.2        
C           59.76       43.24       48.09       
C           62.68       36.85       46.29       
C           61.32       37.05       46.01       
S           63.2        38.2        47.17       
H           59.69       38.43       46.74       
H           60.73       36.37       45.38       
C           60.75       38.16       46.65       
C           61.6        38.86       47.41       
C           65.65       33.93       44.68       
C           64.26       33.65       44.71       
C           65.92       35.08       45.42       
N           62.08       34.09       44.82       
N           62.4        32.91       44.23       
N           63.67       32.54       44.22       
C           61.39       32.08       43.62       
H           66.92       35.47       45.46       
H           65.36       36.99       46.4        
H           60.42347    32.49004    43.91289    
H           61.59       32.07       42.56       
H           61.4383     31.05188    43.97881    
C           65.01       35.98       46.07       
C           63.28       34.56       45.27       
C           63.61       35.78       45.96       
C           68.86       32.87       42.74       
C           67.99       31.8        42.65       
S           68.13       34.04       43.77       
H           65.93       31.29       43.27       
H           68.08       31.02       41.96       
C           66.77       31.97       43.39       
C           66.7        33.17       44.08       
C           72.23       31.61       39.66       
C           71.75       32.46       40.54       
N           71.35       30.49       39.64       
C           70.41       30.57       40.74       
C           71.99       33.81       41.06       
O           72.85       34.65       40.87       
O           69.66       29.65       41.06       
C           70.64       35.44       42.34       
C           71.21       29.31       38.71       
H           71.76284    28.45625    39.10189    
H           71.54       29.49       37.7        
H           70.17       29.03       38.6        
H           70.25       35.54       43.33       
H           69.91331    35.90244    41.67203    
H           71.59       35.95       42.45       
N           70.87       34.05       42.0        
C           70.6        31.92       41.27       
C           70.07       32.92       42.08       
C           74.85       32.08       36.76       
C           74.41       33.3        37.15       
S           74.1        30.82       37.66       
H           72.91       34.01       38.54       
H           74.73       34.23       36.64       
C           73.44       33.2        38.21       
C           73.16       31.93       38.6        
C           77.33       30.87       33.31       
C           76.85       32.18       33.48       
C           77.11       30.06       34.39       
N           75.71       33.85       34.38       
N           76.34       34.16       33.26       
N           76.97       33.2        32.62       
C           76.08       35.42       32.58       
H           77.48       29.01       34.35       
H           76.1        29.76       36.34       
H           75.22319    35.93408    33.01554    
H           76.97       36.09       32.58       
H           75.93597    35.20395    31.52138    
C           76.33       30.45       35.54       
C           76.1        32.57       34.65       
C           75.72       31.68       35.68       
C           79.63       29.08       30.5        
C           79.52       30.48       30.3        
S           78.67       28.75       31.91       
H           78.6        32.26       31.19       
H           80.05       31.02       29.49       
C           78.73       31.18       31.23       
C           78.17       30.39       32.18       
C           83.27       27.31       27.77       
C           82.03       27.13       28.4        
N           83.35       28.73       27.64       
C           82.27       29.44       28.26       
C           81.13       26.11       28.84       
O           81.13       24.92       28.66       
O           82.27       30.62       28.28       
C           79.19       26.09       30.3        
C           84.55       29.55       27.29       
H           84.48039    29.61265    26.20403    
H           84.58       30.58       27.77       
H           85.5        29.13       27.58       
H           78.3        26.67       30.55       
H           79.57397    25.57338    31.17964    
H           78.77       25.41       29.59       
N           80.19       26.83       29.65       
C           81.44       28.38       28.83       
C           80.42       28.19       29.74       
C           86.15       24.78       26.92       
C           84.94       24.14       26.84       
S           85.78       26.46       27.3        
H           82.81       24.59       27.12       
H           84.86       23.08       26.48       
C           83.8        24.99       27.05       
C           84.09       26.33       27.25       
C           90.16       22.9        26.23       
C           89.87       24.24       26.51       
C           88.9        22.34       25.92       
N           88.91       26.18       27.04       
N           90.21       26.36       26.83       
N           90.84       25.2        26.63       
C           90.94       27.52       27.38       
H           88.88       21.28       25.66       
H           86.7        22.32       26.02       
H           90.38395    28.43501    27.17588    
H           91.06       27.33       28.48       
H           91.93099    27.54831    26.92697    
C           87.57       22.92       26.15       
C           88.59       24.85       26.65       
C           87.39       24.16       26.63       
C           93.85       21.29       26.52       
C           93.0        20.4        25.9        
S           92.94       22.74       26.71       
H           90.94       20.23       25.32       
H           93.4        19.53       25.47       
C           91.66       20.88       25.74       
C           91.43       22.2        26.09       
C           98.09       18.92       26.47       
C           97.28       19.98       26.95       
N           97.35       18.3        25.45       
C           96.05       18.8        25.38       
C           97.33       21.13       27.8        
O           98.16       21.67       28.49       
O           95.19       18.26       24.63       
C           95.53       22.65       28.7        
C           97.83       17.85       24.2        
H           97.72147    18.61692    23.43308    
H           97.3        16.95       23.92       
H           98.85       17.67       24.24       
H           94.57       22.42       29.2        
H           95.72283    23.67127    28.37148    
H           96.22       22.52       29.6        
N           95.99       21.71       27.7        
C           96.0        19.96       26.27       
C           95.25       21.04       26.7        
C           101.31      17.09       27.77       
C           101.27      18.33       28.3        
S           100.02      16.88       26.61       
H           99.93       20.0        28.29       
H           102.04      18.66       29.02       
C           100.1       18.99       27.93       
C           99.32       18.43       26.95       
C           104.77      14.42       28.42       
C           104.01      15.02       29.44       
C           104.23      14.85       27.2        
N           102.43      16.3        30.41       
N           103.27      15.77       31.3        
N           104.12      14.88       30.76       
C           103.36      16.14       32.7        
H           104.64      14.37       26.35       
H           102.78      15.89       25.98       
H           102.61783   16.91017    32.91005    
H           103.17      15.22       33.29       
H           104.35616   16.50921    32.94382    
C           103.06      15.59       27.0        
C           102.82      15.79       29.23       
C           102.3       16.04       27.99       
C           108.11      12.4        28.14       
C           107.73      12.43       29.46       
S           106.79      13.03       27.23       
H           106.1       13.07       30.73       
H           108.4       12.08       30.28       
C           106.46      12.93       29.76       
C           105.86      13.48       28.65       
C           112.77      10.91       28.05       
C           111.65      11.5        27.4        
N           112.39      10.86       29.38       
C           111.01      11.25       29.61       
C           111.18      12.04       26.17       
O           111.78      12.34       25.14       
O           110.31      11.03       30.63       
C           109.14      12.91       25.1        
C           113.31      10.98       30.49       
H           113.23164   11.97022    30.9388     
H           114.28      10.87       30.14       
H           113.12      10.16       31.2        
H           108.63      13.82       25.24       
H           108.68111   12.11738    24.50901    
H           109.91      13.36       24.51       
N           109.79      12.39       26.29       
C           110.53      11.68       28.27       
C           109.39      12.08       27.59       
C           115.94      8.97        26.7        
C           115.32      9.54        25.66       
S           115.16      9.42        28.17       
H           113.43      10.72       25.29       
H           115.64      9.36        24.66       
C           114.14      10.24       25.97       
C           113.92      10.37       27.32       
C           118.6       5.52        26.72       
C           118.26      6.14        27.92       
C           118.1       6.15        25.59       
N           117.32      7.62        29.34       
N           117.97      6.67        29.96       
N           118.65      5.82        29.16       
C           117.87      6.43        31.42       
H           118.33      5.68        24.67       
H           116.87      7.61        24.75       
H           117.22039   7.17344     31.88195    
H           117.47      5.44        31.7        
H           118.87518   6.45852     31.84061    
C           117.34      7.32        25.64       
C           117.49      7.37        27.97       
C           116.99      7.97        26.8        
C           119.97      1.88        26.11       
C           120.58      2.42        27.16       
S           118.86      3.03        25.46       
H           120.36      4.17        28.42       
H           121.29      1.96        27.83       
C           120.13      3.67        27.54       
C           119.28      4.19        26.67       
C           121.44      -2.72       26.05       
C           120.73      -1.69       25.48       
N           121.86      -2.25       27.28       
C           121.41      -0.92       27.51       
C           119.89      -1.35       24.34       
O           119.59      -1.95       23.25       
O           121.85      -0.14       28.36       
C           118.99      0.7         23.32       
C           122.46      -2.98       28.4        
H           121.67197   -3.13044    29.13788    
H           123.28      -2.33       28.82       
H           122.86      -3.93       28.03       
H           119.25      1.74        23.02       
H           117.91319   0.62156     23.46976    
H           119.16      0.07        22.44       
N           119.66      0.03        24.43       
C           120.67      -0.54       26.31       
C           120.04      0.51        25.7        
C           122.34      -6.31       24.9        
C           121.18      -5.92       24.38       
S           122.92      -4.99       25.88       
H           119.92      -4.06       24.31       
H           120.55      -6.66       23.85       
C           120.76      -4.63       24.68       
C           121.5       -4.06       25.68       
C           124.45      -10.19      25.34       
C           123.15      -10.05      24.81       
C           125.04      -8.96       25.55       
N           121.17      -9.04       24.28       
N           121.08      -10.32      24.21       
N           122.19      -11.0       24.58       
C           119.77      -10.96      23.93       
H           125.96      -8.89       26.05       
H           124.92      -6.82       25.57       
H           119.05894   -10.23527   23.53345    
H           119.93      -11.81      23.24       
H           119.37607   -11.36123   24.86377    
C           124.33      -7.71       25.38       
C           122.42      -8.82       24.73       
C           123.03      -7.61       24.98       
C           125.98      -13.78      25.51       
C           126.97      -12.82      25.74       
S           124.52      -12.96      25.08       
H           127.15      -10.62      25.74       
H           128.01      -13.02      25.91       
C           126.53      -11.5       25.64       
C           125.2       -11.4       25.42       
C           128.97      -17.18      24.26       
C           127.66      -16.86      24.54       
N           129.58      -16.01      23.86       
C           128.84      -14.83      24.27       
C           126.35      -17.37      24.87       
O           125.87      -18.48      24.96       
O           129.24      -13.72      24.04       
C           124.3       -16.41      25.97       
C           130.62      -15.81      22.84       
H           131.62096   -15.83085   23.27097    
H           130.44      -16.55      22.1        
H           130.51      -14.85      22.33       
H           123.49      -15.91      25.4        
H           124.2726    -16.04698   26.99741    
H           124.08      -17.46      25.92       
N           125.61      -16.27      25.33       
C           127.61      -15.42      24.76       
C           126.36      -15.09      25.17       
C           130.85      -20.6       24.23       
C           129.53      -20.82      23.97       
S           131.05      -18.9       24.26       
H           127.64      -19.66      23.68       
H           129.13      -21.84      24.05       
C           128.7       -19.62      23.78       
C           129.42      -18.5       24.04       
C           134.46      -22.57      25.84       
C           133.26      -23.3       25.57       
C           134.41      -21.26      25.36       
N           131.21      -23.79      24.86       
N           131.83      -24.88      25.33       
N           133.06      -24.64      25.77       
C           131.15      -26.15      25.35       
H           135.25      -20.61      25.4        
H           133.28      -19.72      24.46       
H           130.10949   -25.98889   25.06806    
H           131.65      -26.88      24.72       
H           131.27244   -26.59656   26.33676    
C           133.22      -20.69      24.85       
C           132.04      -22.75      25.06       
C           132.0       -21.39      24.65       
C           138.05      -23.21      27.46       
C           137.21      -24.27      27.74       
S           137.15      -22.23      26.38       
H           135.06      -25.02      27.35       
H           137.5       -24.99      28.49       
C           135.91      -24.29      27.1        
C           135.67      -23.11      26.44       
C           140.68      -23.1       31.46       
C           140.37      -22.55      30.25       
N           140.03      -24.3       31.65       
C           139.15      -24.47      30.48       
C           140.84      -21.62      29.27       
O           141.74      -20.76      29.38       
O           138.47      -25.5       30.39       
C           140.14      -20.87      27.01       
C           140.31      -25.51      32.44       
H           139.66588   -25.53273   33.31903    
H           140.18      -26.42      31.91       
H           141.3       -25.54      32.81       
H           139.34      -20.14      26.9        
H           140.33813   -21.48561   26.13258    
H           140.93      -20.23      27.29       
N           139.9       -21.71      28.2        
C           139.42      -23.34      29.6        
C           139.11      -22.85      28.35       
C           144.18      -22.65      33.22       
C           143.19      -22.79      34.18       
S           143.5       -22.75      31.69       
H           140.93      -23.18      34.18       
H           143.41      -22.86      35.26       
C           141.86      -22.97      33.63       
C           141.88      -22.83      32.27       
C           147.99      -20.48      33.73       
C           147.75      -21.39      32.66       
C           146.89      -20.47      34.6        
N           146.77      -22.99      31.41       
N           147.97      -22.61      30.92       
N           148.61      -21.73      31.63       
C           148.5       -23.3       29.73       
H           146.9       -19.92      35.56       
H           144.97      -21.19      35.15       
H           147.72645   -24.01729   29.45574    
H           148.52      -22.6       28.93       
H           149.4058    -23.85073   29.98362    
C           145.75      -21.31      34.46       
C           146.56      -22.2       32.53       
C           145.52      -22.18      33.42       
C           151.16      -18.23      33.3        
C           150.62      -18.1       34.57       
S           149.95      -19.11      32.36       
H           149.1       -18.97      35.82       
H           151.1       -17.56      35.35       
C           149.55      -18.95      34.86       
C           149.1       -19.65      33.81       
C           153.25      -17.08      29.34       
C           153.21      -16.82      30.68       
N           152.82      -18.41      29.14       
C           152.42      -19.03      30.37       
C           153.48      -15.84      31.66       
O           153.96      -14.69      31.68       
O           152.1       -20.22      30.57       
C           152.92      -15.57      34.05       
C           152.18      -19.12      28.0        
H           151.18083   -18.71454   27.84071    
H           152.11      -20.19      28.22       
H           152.81      -19.02      27.11       
H           152.89      -16.29      34.88       
H           152.07467   -14.88274   34.08436    
H           153.88      -15.04      34.0        
N           152.78      -16.32      32.83       
C           152.61      -17.97      31.33       
C           152.19      -17.6       32.63       
C           153.57      -14.91      26.09       
C           154.0       -14.22      27.18       
S           153.2       -16.53      26.64       
H           154.19      -14.3       29.37       
H           154.13      -13.11      27.06       
C           154.03      -14.85      28.44       
C           153.62      -16.15      28.27       
C           152.5       -13.29      22.1        
C           151.62      -14.33      22.76       
C           153.66      -13.08      22.71       
N           151.07      -15.61      24.52       
N           150.19      -15.56      23.54       
N           150.44      -14.87      22.51       
C           148.81      -16.06      23.65       
H           154.36      -12.33      22.41       
H           154.82      -13.02      24.35       
H           148.59472   -16.43002   24.65242    
H           148.16      -15.26      23.45       
H           148.58449   -16.82109   22.90301    
C           153.98      -13.56      23.96       
C           152.1       -14.85      24.03       
C           153.26      -14.48      24.73       
C           151.05      -11.31      18.97       
C           152.44      -11.35      18.91       
S           150.56      -12.32      20.28       
H           154.18      -12.23      19.98       
H           153.06      -10.77      18.3        
C           153.1       -12.15      19.86       
C           152.22      -12.58      20.79       
C           150.11      -7.12       16.63       
C           149.64      -8.33       17.24       
N           151.51      -7.13       16.76       
C           151.96      -8.29       17.38       
C           148.45      -9.14       17.53       
O           147.21      -8.93       17.45       
O           153.12      -8.43       17.79       
C           148.05      -11.46      18.36       
C           152.36      -6.0        17.07       
H           152.33061   -5.80897    18.14273    
H           152.03      -5.11       16.54       
H           153.44      -6.0        16.8        
H           148.35      -11.83      19.33       
H           148.10497   -12.24339   17.6041     
H           147.04      -11.06      18.36       
N           148.94      -10.37      18.05       
C           150.72      -9.1        17.68       
C           150.33      -10.26      18.32       
C           148.21      -4.46       14.39       
C           147.34      -5.2        15.03       
S           149.76      -4.77       15.16       
H           147.24      -6.95       16.43       
H           146.28      -5.02       14.83       
C           147.86      -6.21       15.92       
C           149.22      -6.15       16.05       
C           147.73      -0.95       11.83       
C           146.7       -1.67       12.41       
C           148.96      -1.52       12.1        
N           145.49      -3.29       13.43       
N           144.75      -2.44       12.74       
N           145.34      -1.55       12.06       
C           143.3       -2.3        12.9        
H           149.83      -1.03       11.71       
H           150.18      -3.03       13.13       
H           143.03878   -1.29749    13.23888    
H           142.88      -3.01       13.62       
H           142.82408   -2.5621     11.95506    
C           149.08      -2.66       12.97       
C           146.74      -2.84       13.17       
C           148.01      -3.3        13.56       
H           59.1        47.07       51.02       
H           147.48      -0.49       10.84       
