472

C           55.77       33.42       95.38       
C           55.44       34.54       96.02       
S           56.29       32.3        96.6        
H           55.64       35.52       98.02       
H           54.97       35.37       95.54       
C           55.76       34.66       97.35       
C           56.23       33.49       97.88       
C           54.04       33.72       90.8        
C           54.8        33.05       91.72       
N           53.6        34.83       91.45       
C           54.03       34.96       92.86       
C           55.73       31.92       91.93       
O           56.24       31.11       91.13       
O           53.77       35.92       93.61       
C           57.02       30.97       93.83       
C           52.95       35.99       90.85       
H           53.6316     36.81917    90.66028    
H           52.15       36.29       91.5        
H           52.38       35.84       89.89       
H           56.77       30.52       94.77       
H           58.0906     31.12495    93.69618    
H           56.89       30.19       93.15       
N           56.19       32.0        93.29       
C           54.78       33.75       93.0        
C           55.48       33.04       93.97       
C           52.66       32.67       87.2        
C           53.28       31.62       87.77       
S           52.77       34.03       88.29       
H           54.29       31.22       89.68       
H           53.43       30.59       87.41       
C           53.71       31.89       89.1        
C           53.61       33.17       89.54       
C           51.22       32.78       83.01       
C           51.08       33.9        83.83       
C           51.8        31.71       83.63       
N           51.42       35.21       85.61       
N           50.76       35.84       84.62       
N           50.53       35.12       83.5        
C           49.99       37.09       84.73       
H           51.86       30.77       83.06       
H           52.64       30.74       85.25       
H           50.19285    37.47397    85.72976    
H           50.26       37.73       83.93       
H           48.91358    36.93027    84.6675     
C           52.22       31.7        84.98       
C           51.61       33.95       85.16       
C           52.11       32.78       85.82       
C           50.22       32.15       79.24       
C           50.68       33.41       79.4        
S           50.15       31.37       80.83       
H           51.75       34.7        80.95       
H           50.74       34.04       78.56       
C           51.22       33.77       80.7        
C           50.99       32.72       81.6        
C           48.59       31.96       74.66       
C           48.78       31.29       75.89       
N           48.64       33.34       74.96       
C           49.18       33.58       76.29       
C           48.76       30.03       76.48       
O           48.48       28.91       76.13       
O           49.38       34.69       76.71       
C           49.42       29.03       78.74       
C           48.28       34.59       74.21       
H           49.19628    35.06563    73.86027    
H           47.67       35.32       74.76       
H           47.71       34.32       73.38       
H           49.05       29.15       79.77       
H           50.39626    28.54543    78.72575    
H           48.66       28.34       78.45       
N           49.31       30.21       77.81       
C           49.25       32.2        76.88       
C           49.57       31.5        78.1        
C           47.75       30.68       70.98       
C           47.24       29.82       71.88       
S           48.28       32.13       71.89       
H           47.42       29.42       74.08       
H           46.83       28.88       71.57       
C           47.59       30.14       73.3        
C           48.06       31.4        73.45       
C           48.75       30.37       66.66       
C           48.19       29.27       67.36       
C           48.82       31.47       67.47       
N           47.24       28.19       69.08       
N           47.32       27.47       67.97       
N           48.02       28.0        66.98       
C           46.2        26.53       67.63       
H           49.21       32.43       67.07       
H           48.85       32.45       69.26       
H           45.49551    26.35388    68.44288    
H           45.58       26.96       66.81       
H           46.58089    25.57431    67.26989    
C           48.55       31.52       68.84       
C           47.85       29.35       68.77       
C           48.05       30.51       69.58       
C           50.11       31.05       62.92       
C           49.62       29.8        63.05       
S           49.92       31.76       64.44       
H           48.8        28.37       64.6        
H           49.44       29.13       62.18       
C           49.17       29.38       64.36       
C           49.19       30.41       65.25       
C           50.77       34.68       59.85       
C           51.0        33.3        60.13       
N           50.14       35.2        61.0        
C           49.86       34.13       61.96       
C           51.7        32.08       59.68       
O           52.43       31.87       58.72       
O           49.15       34.32       62.96       
C           51.91       29.74       60.49       
C           50.14       36.52       61.57       
H           51.18381    36.83387    61.5627     
H           49.56       37.24       61.0        
H           49.82       36.51       62.65       
H           51.1        29.03       60.53       
H           52.64997    29.49581    61.25217    
H           52.41       29.61       59.56       
N           51.39       31.07       60.7        
C           50.49       32.94       61.41       
C           50.6        31.63       61.71       
C           50.64       36.58       56.44       
C           51.36       35.42       56.36       
S           50.29       36.86       58.09       
H           52.04       33.8        57.69       
H           51.66       35.0        55.37       
C           51.6        34.8        57.63       
C           51.04       35.4        58.65       
C           48.78       38.42       52.96       
C           48.85       39.12       54.2        
C           49.3        37.17       53.03       
N           49.49       39.41       56.39       
N           48.78       40.46       55.91       
N           48.36       40.38       54.6        
C           48.2        41.55       56.68       
H           49.28       36.5        52.22       
H           50.22       35.6        53.99       
H           48.16437    41.25071    57.7275     
H           48.84       42.5        56.52       
H           47.1958     41.74801    56.30519    
C           49.9        36.6        54.16       
C           49.45       38.52       55.38       
C           50.07       37.23       55.34       
C           47.44       40.06       49.63       
C           47.61       38.8        49.46       
S           47.85       40.51       51.26       
H           48.32       37.03       50.6        
H           47.37       38.29       48.56       
C           48.07       38.08       50.56       
C           48.28       38.85       51.63       
C           44.63       40.97       45.77       
C           45.4        41.45       46.81       
N           44.39       39.7        46.1        
C           45.08       39.36       47.3        
C           46.1        42.63       47.15       
O           46.15       43.75       46.65       
O           44.97       38.23       47.8        
C           47.85       43.16       48.83       
C           43.37       38.76       45.57       
H           42.52657    38.82379    46.2575     
H           43.93       37.83       45.34       
H           42.86       38.98       44.64       
H           48.73       42.62       49.05       
H           47.44156    43.78341    49.62538    
H           48.18       43.79       48.03       
N           46.9        42.26       48.32       
C           45.76       40.49       47.83       
C           46.63       40.96       48.78       
C           42.6        42.88       42.98       
C           43.8        43.5        43.15       
S           42.56       41.35       43.8        
H           45.54       43.3        44.5        
H           44.08       44.45       42.73       
C           44.6        42.9        44.18       
C           44.16       41.66       44.61       
C           38.77       44.5        41.64       
C           40.0        45.16       41.45       
C           38.9        43.29       42.27       
N           42.13       45.63       41.58       
N           41.49       46.64       40.98       
N           40.2        46.37       40.84       
C           42.09       47.71       40.2        
H           37.98       42.69       42.42       
H           40.16       41.82       43.3        
H           43.07618    47.94035    40.60311    
H           42.15       47.47       39.13       
H           41.40386    48.55555    40.24852    
C           40.15       42.74       42.67       
C           41.24       44.61       41.73       
C           41.39       43.36       42.38       
C           35.04       45.73       41.17       
C           35.78       46.52       40.39       
S           36.07       44.6        42.01       
H           37.95       46.74       39.91       
H           35.42       47.39       39.93       
C           37.2        46.19       40.48       
C           37.49       45.07       41.21       
C           30.79       47.82       41.86       
C           31.59       46.68       41.93       
N           31.48       48.83       41.21       
C           32.82       48.33       40.87       
C           31.64       45.38       42.54       
O           30.78       44.65       43.07       
O           33.53       49.07       40.21       
C           32.93       43.4        41.94       
C           31.22       50.27       41.05       
H           31.73412    50.9461     41.73314    
H           30.19       50.45       41.24       
H           31.51       50.56       40.02       
H           33.94       43.03       42.12       
H           32.46462    43.07564    41.00924    
H           32.35       43.09       42.78       
N           32.9        44.84       42.05       
C           32.83       46.95       41.34       
C           33.66       45.91       41.55       
C           28.07       47.95       44.66       
C           27.66       48.76       43.61       
S           29.63       47.25       44.22       
H           28.37       49.47       41.61       
H           26.68       49.27       43.75       
C           28.59       48.88       42.49       
C           29.6        47.95       42.63       
C           25.87       46.53       48.27       
C           27.27       46.33       48.06       
C           25.35       47.28       47.26       
N           29.2        46.28       47.04       
N           29.14       45.38       48.05       
N           28.12       45.55       48.81       
C           30.19       44.45       48.37       
H           24.27       47.35       47.27       
H           25.46       48.33       45.36       
H           30.76924    44.19256    47.48326    
H           30.88       44.87       49.15       
H           29.73797    43.56714    48.82203    
C           26.01       47.76       46.08       
C           27.95       46.81       46.95       
C           27.39       47.58       45.87       
C           23.22       44.39       50.35       
C           24.43       44.44       51.05       
S           23.4        45.36       48.94       
H           26.46       45.38       50.81       
H           24.45       43.93       51.98       
C           25.46       45.29       50.46       
C           25.05       45.86       49.29       
C           21.24       40.3        52.06       
C           21.11       41.56       51.38       
N           22.56       40.2        52.37       
C           23.36       41.31       51.85       
C           20.13       42.44       50.77       
O           18.9        42.32       50.77       
O           24.55       41.3        51.91       
C           20.13       44.64       49.66       
C           23.41       39.04       52.81       
H           23.86314    39.24914    53.77903    
H           24.2        38.85       52.01       
H           22.84       38.16       52.92       
H           20.75       45.28       48.98       
H           19.70892    45.26806    50.44507    
H           19.41       44.07       49.09       
N           20.9        43.61       50.33       
C           22.4        42.2        51.18       
C           22.26       43.37       50.52       
C           18.68       37.46       53.06       
C           18.18       38.22       52.09       
S           20.27       38.07       53.43       
H           18.7        40.1        50.92       
H           17.16       38.11       51.75       
C           19.02       39.28       51.64       
C           20.26       39.29       52.22       
C           17.24       34.17       55.8        
C           16.61       34.48       54.6        
C           18.33       35.02       56.01       
N           16.29       35.58       52.68       
N           15.47       34.57       52.87       
N           15.54       33.93       54.02       
C           14.6        34.06       51.86       
H           18.94       34.84       56.86       
H           19.52       36.67       55.47       
H           14.58582    34.78321    51.04461    
H           15.03       33.05       51.54       
H           13.61368    33.85543    52.27645    
C           18.81       36.02       55.07       
C           17.09       35.5        53.73       
C           18.26       36.33       53.91       
C           15.54       31.49       58.23       
C           16.8        31.7        58.67       
S           15.2        32.5        56.89       
H           18.55       33.05       58.13       
H           17.15       31.31       59.6        
C           17.52       32.66       57.9        
C           16.84       33.17       56.78       
C           13.65       28.48       61.51       
C           13.59       29.06       60.3        
N           14.99       28.56       61.86       
C           15.68       29.43       61.01       
C           12.64       29.33       59.19       
O           11.46       29.01       58.94       
O           16.81       29.76       61.3        
C           12.59       30.73       57.14       
C           15.73       27.82       62.83       
H           15.8183     28.33507    63.78656    
H           15.39       26.82       63.03       
H           16.78       27.68       62.52       
H           13.24       30.75       56.28       
H           11.93462    31.59424    57.24803    
H           11.98       29.89       56.84       
N           13.27       30.35       58.38       
C           14.79       29.7        59.94       
C           14.64       30.49       58.79       
C           11.02       25.91       62.76       
C           11.78       26.3        63.84       
S           11.55       26.76       61.35       
H           13.3        27.8        64.3        
H           11.64       25.88       64.85       
C           12.68       27.41       63.53       
C           12.69       27.74       62.21       
C           8.01        22.77       61.99       
C           8.65        22.88       63.25       
C           8.23        23.89       61.17       
N           9.94        23.82       64.93       
N           9.2         22.78       65.35       
N           8.49        22.2        64.39       
C           9.25        22.38       66.77       
H           7.73        23.99       60.24       
H           9.32        25.62       60.73       
H           10.13503    22.80868    67.24017    
H           8.35        22.82       67.21       
H           9.32137     21.29518    66.84851    
C           9.24        24.82       61.46       
C           9.6         23.99       63.6        
C           9.99        24.93       62.62       
C           5.79        20.21       59.95       
C           5.59        19.93       61.29       
S           6.89        21.54       59.8        
H           6.49        20.56       63.25       
H           4.99        19.05       61.61       
C           6.39        20.71       62.18       
C           7.07        21.75       61.51       
C           4.79        19.57       55.28       
C           4.48        19.26       56.6        
N           5.94        20.38       55.23       
C           6.36        20.59       56.64       
C           3.57        18.45       57.4        
O           2.66        17.66       57.19       
O           7.27        21.38       56.91       
C           3.1         18.44       59.85       
C           6.96        20.48       54.22       
H           7.1722      19.43363    54.00048    
H           6.57        21.01       53.33       
H           7.84        21.05       54.57       
H           3.08        19.19       60.61       
H           3.33513     17.45538    60.25414    
H           2.07        18.36       59.45       
N           3.99        18.81       58.78       
C           5.4         19.87       57.46       
C           5.09        19.65       58.77       
C           2.58        19.49       52.01       
C           1.95        18.85       53.01       
S           4.08        20.13       52.57       
H           2.47        18.11       55.14       
H           0.9         18.54       52.92       
C           2.72        18.68       54.19       
C           3.96        19.25       54.08       
C           1.16        21.15       48.18       
C           0.24        20.59       49.11       
C           2.5         21.06       48.59       
N           -0.46       19.59       51.06       
N           -1.45       19.81       50.19       
N           -1.11       20.47       49.11       
C           -2.86       19.47       50.45       
H           3.25        21.48       47.89       
H           3.93        20.23       49.91       
H           -2.97774    18.66662    51.1772     
H           -3.41       20.39       50.77       
H           -3.23621    19.18436    49.46767    
C           2.9         20.44       49.79       
C           0.69        19.97       50.39       
C           2.05        19.95       50.74       
C           0.63        22.97       44.68       
C           -0.61       22.81       45.23       
S           1.86        22.16       45.66       
H           -1.42       21.99       47.09       
H           -1.49       23.22       44.7        
C           -0.55       22.15       46.45       
C           0.72        21.73       46.89       
C           0.15        26.43       41.37       
C           0.87        25.47       41.97       
N           -0.98       26.57       42.22       
C           -1.06       25.52       43.23       
C           2.06        24.77       41.66       
O           2.88        24.81       40.71       
O           -2.05       25.45       44.01       
C           3.21        22.87       42.8        
C           -2.23       27.29       41.93       
H           -2.88339    26.73713    41.25507    
H           -2.02       28.26       41.5        
H           -2.73       27.53       42.88       
H           2.85        21.86       43.02       
H           4.04438     23.22168    43.40682    
H           3.63        22.79       41.77       
N           2.11        23.85       42.74       
C           0.2         24.86       43.1        
C           0.99        23.93       43.61       
C           2.03        29.12       39.14       
C           0.68        29.06       38.77       
S           2.25        28.05       40.47       
H           -1.16       27.91       39.33       
H           0.34        29.65       37.95       
C           -0.1        28.13       39.56       
C           0.64        27.42       40.42       
C           5.27        31.57       37.11       
C           5.53        30.57       38.09       
C           3.91        31.73       36.93       
N           5.11        29.13       39.82       
N           6.44        29.38       39.65       
N           6.71        30.2        38.68       
C           7.51        28.58       40.28       
H           3.54        32.42       36.26       
H           1.88        31.13       37.3        
H           7.12247     27.62608    40.63772    
H           8.28        28.3        39.51       
H           7.94288     29.04174    41.16741    
C           2.9         30.95       37.59       
C           4.53        29.91       38.85       
C           3.13        29.93       38.57       
C           8.49        33.58       35.91       
C           7.49        33.7        34.94       
S           8.0         32.44       37.06       
H           5.21        33.1        34.71       
H           7.57        34.31       34.07       
C           6.17        33.13       35.26       
C           6.32        32.4        36.47       
C           12.26       35.28       33.47       
C           11.75       34.88       34.63       
N           11.27       35.17       32.5        
C           10.07       34.74       33.08       
C           12.12       34.65       36.04       
O           13.19       34.91       36.66       
O           9.09        34.53       32.34       
C           10.91       33.6        37.96       
C           11.38       35.23       31.06       
H           11.59889    34.22732    30.69282    
H           12.19       35.9        30.84       
H           10.48       35.6        30.48       
H           10.47       32.59       38.2        
H           10.50717    34.41285    38.56424    
H           11.98       33.49       38.12       
N           10.92       34.01       36.61       
C           10.39       34.51       34.47       
C           9.84        34.02       35.68       
C           15.88       36.55       32.3        
C           16.0        35.76       33.42       
S           14.2        36.83       32.04       
H           14.63       34.68       34.78       
H           16.94       35.6        33.89       
C           14.76       35.24       33.91       
C           13.66       35.58       33.16       
C           19.15       38.14       29.73       
C           17.82       38.21       29.34       
C           19.34       37.55       30.91       
N           15.56       38.06       29.6        
N           15.96       38.7        28.49       
N           17.25       38.65       28.19       
C           14.94       38.74       27.4        
H           20.32       37.25       31.24       
H           18.54       36.82       32.75       
H           13.9314     38.60505    27.79066    
H           15.18       37.99       26.61       
H           15.0255     39.70905    26.90835    
C           18.26       37.1        31.78       
C           16.74       37.75       30.18       
C           16.95       37.13       31.43       
H           56.85       33.32       98.77       
H           19.88       38.88       29.38       
