472

C           58.47       33.96       15.64       
C           58.29       34.8        16.66       
S           60.04       33.26       15.81       
H           59.31       35.51       18.38       
H           57.3        35.29       16.81       
C           59.34       34.92       17.58       
C           60.31       34.02       17.35       
C           54.15       34.04       13.36       
C           55.37       33.45       13.57       
N           54.06       35.1        14.22       
C           55.33       35.3        14.94       
C           56.24       32.4        12.97       
O           56.17       31.52       12.12       
O           55.5        36.38       15.53       
C           58.61       31.8        13.24       
C           52.85       35.73       14.63       
H           52.78028    35.75091    15.71757    
H           51.97       35.29       14.17       
H           52.82       36.75       14.25       
H           59.07       31.32       14.12       
H           59.28755    32.27871    12.53299    
H           58.25       30.95       12.68       
N           57.54       32.7        13.61       
C           56.14       34.26       14.47       
C           57.42       33.65       14.61       
C           51.04       33.08       11.08       
C           51.89       32.02       11.18       
S           51.76       34.4        11.87       
H           53.69       31.51       12.48       
H           51.73       31.11       10.6        
C           53.0        32.27       12.11       
C           53.05       33.53       12.6        
C           47.74       33.96       8.23        
C           47.62       34.38       9.57        
C           48.93       33.29       7.96        
N           48.35       34.63       11.69       
N           47.21       35.26       11.38       
N           46.7        35.17       10.15       
C           46.74       36.35       12.24       
H           49.1        32.97       6.94        
H           50.89       32.47       8.55        
H           47.26184    36.37174    13.19672    
H           46.93       37.26       11.69       
H           45.67146    36.20139    12.39568    
C           49.92       32.85       8.89        
C           48.69       34.04       10.53       
C           49.86       33.23       10.21       
C           45.67       35.07       4.93        
C           45.61       36.09       5.92        
S           46.87       33.91       5.5         
H           46.2        36.45       7.98        
H           44.95       36.91       5.76        
C           46.32       35.83       7.07        
C           46.97       34.61       7.1         
C           44.19       33.94       0.51        
C           44.51       34.89       1.39        
N           44.32       32.72       1.18        
C           44.78       32.93       2.55        
C           44.65       36.32       1.57        
O           44.5        37.25       0.72        
O           44.99       32.06       3.31        
C           45.94       37.76       3.07        
C           44.32       31.39       0.6         
H           43.43743    30.86331    0.96299     
H           45.13       30.82       0.9         
H           44.33       31.35       -0.46       
H           46.99       37.48       3.43        
H           45.50658    38.57627    3.64789     
H           46.08       38.19       2.1         
N           45.1        36.56       2.94        
C           44.89       34.34       2.68        
C           45.24       35.33       3.57        
C           42.12       34.22       -2.98       
C           42.91       35.33       -2.76       
S           42.37       33.13       -1.6        
H           44.35       36.08       -1.35       
H           42.81       36.2        -3.39       
C           43.76       35.26       -1.64       
C           43.63       34.11       -0.88       
C           38.84       33.81       -5.9        
C           39.35       32.65       -5.16       
C           39.47       35.01       -5.64       
N           40.59       31.57       -3.8        
N           39.6        30.87       -4.25       
N           38.85       31.44       -5.24       
C           39.38       29.42       -3.88       
H           39.11       35.96       -6.09       
H           40.92       36.09       -4.56       
H           40.03458    29.16824    -3.04559    
H           38.29       29.33       -3.53       
H           39.49437    28.74808    -4.73062    
C           40.55       35.09       -4.74       
C           40.41       32.81       -4.26       
C           41.06       34.05       -3.97       
C           35.94       34.57       -8.54       
C           35.94       33.25       -8.24       
S           37.21       35.32       -7.56       
H           37.02       31.91       -6.97       
H           35.11       32.57       -8.53       
C           36.95       32.88       -7.35       
C           37.76       33.84       -6.89       
C           34.16       37.86       -11.52      
C           33.98       36.72       -10.71      
N           35.45       38.28       -11.22      
C           36.14       37.4        -10.28      
C           32.9        35.8        -10.27      
O           31.66       35.78       -10.36      
O           37.24       37.61       -9.81       
C           32.75       34.39       -8.31       
C           36.02       39.58       -11.55      
H           35.52684    40.29156    -10.88775   
H           37.16       39.57       -11.39      
H           35.82       39.83       -12.55      
H           33.37       34.27       -7.39       
H           32.33825    33.40759    -8.54116    
H           31.95       35.13       -8.1        
N           33.6        34.85       -9.4        
C           35.13       36.36       -10.04      
C           34.97       35.22       -9.38       
C           32.12       39.43       -14.51      
C           31.47       38.28       -14.06      
S           33.49       39.77       -13.54      
H           31.88       36.68       -12.59      
H           30.73       37.82       -14.64      
C           32.12       37.65       -12.95      
C           33.26       38.32       -12.57      
C           31.66       41.84       -18.18      
C           30.69       40.81       -17.72      
C           32.67       42.01       -17.27      
N           29.8        39.24       -16.44      
N           29.03       39.54       -17.48      
N           29.45       40.51       -18.24      
C           27.77       38.76       -17.75      
H           33.52       42.71       -17.51      
H           33.92       41.36       -15.73      
H           27.55118    38.15825    -16.86789   
H           26.94       39.41       -17.97      
H           27.91675    38.1143     -18.61582   
C           32.9        41.11       -16.21      
C           30.85       40.1        -16.55      
C           31.99       40.25       -15.71      
C           32.16       43.89       -21.29      
C           31.13       43.01       -21.6       
S           32.62       43.82       -19.61      
H           30.22       41.24       -20.47      
H           30.7        42.87       -22.59      
C           30.88       42.14       -20.48      
C           31.54       42.53       -19.42      
C           35.34       46.73       -23.51      
C           34.07       46.28       -23.37      
N           36.05       46.22       -22.42      
C           35.29       45.22       -21.68      
C           32.77       46.44       -23.97      
O           32.4        47.12       -24.96      
O           35.66       44.59       -20.72      
C           30.5        45.73       -23.19      
C           37.24       46.75       -21.72      
H           38.00358    45.97228    -21.73414   
H           37.08       47.1        -20.72      
H           37.62       47.5        -22.36      
H           30.16       46.7        -22.87      
H           30.00011    45.35171    -24.08169   
H           30.17       45.25       -22.28      
N           31.94       45.53       -23.21      
C           33.96       45.31       -22.3       
C           32.66       44.79       -22.26      
C           37.3        48.75       -26.21      
C           35.93       49.15       -26.31      
S           37.49       47.64       -24.85      
H           34.07       48.5        -25.31      
H           35.48       49.82       -27.09      
C           35.11       48.44       -25.37      
C           35.84       47.66       -24.48      
C           40.83       49.62       -28.6       
C           39.63       50.25       -28.87      
C           40.88       48.86       -27.45      
N           37.43       50.83       -28.64      
N           38.03       51.29       -29.69      
N           39.31       51.0        -29.93      
C           37.35       52.38       -30.42      
H           41.81       48.5        -27.04      
H           39.9        48.03       -25.69      
H           36.31029    52.34464    -30.09465   
H           37.77       53.35       -30.15      
H           37.46251    52.24639    -31.49591   
C           39.72       48.53       -26.73      
C           38.45       50.02       -28.09      
C           38.47       49.06       -27.03      
C           44.33       49.88       -30.33      
C           43.45       50.52       -31.1       
S           43.57       49.13       -28.96      
H           41.36       51.23       -30.98      
H           43.76       51.09       -31.94      
C           42.15       50.57       -30.6       
C           42.01       49.82       -29.42      
C           48.18       50.0        -33.24      
C           47.67       49.73       -31.96      
N           47.09       50.4        -34.04      
C           45.89       50.2        -33.34      
C           48.03       49.35       -30.64      
O           49.09       49.13       -30.08      
O           44.84       50.36       -33.91      
C           46.85       48.86       -28.51      
C           47.19       51.35       -35.13      
H           46.80702    52.31453    -34.79667   
H           46.46       51.02       -35.92      
H           48.16       51.51       -35.47      
H           46.11       48.21       -28.14      
H           46.89998    49.68823    -27.80315   
H           47.75       48.2        -28.44      
N           46.76       49.3        -29.94      
C           46.25       49.84       -31.96      
C           45.68       49.63       -30.75      
C           51.89       49.53       -34.73      
C           51.98       49.72       -33.39      
S           50.17       49.54       -35.18      
H           50.57       50.08       -31.66      
H           52.85       49.65       -32.83      
C           50.7        49.93       -32.72      
C           49.63       49.9        -33.56      
C           55.18       48.36       -37.49      
C           53.94       48.95       -37.96      
C           55.31       48.46       -36.14      
N           51.72       49.57       -37.92      
N           52.17       49.32       -39.14      
N           53.42       48.95       -39.22      
C           51.28       49.2        -40.26      
H           56.15       48.04       -35.65      
H           54.51       48.81       -34.16      
H           50.40857    49.83763    -40.11122   
H           51.71       49.41       -41.17      
H           50.93217    48.17826    -40.41217   
C           54.25       48.95       -35.21      
C           52.83       49.28       -37.11      
C           52.95       49.24       -35.67      
C           57.84       47.17       -40.14      
C           58.31       46.8        -38.88      
S           56.31       47.93       -39.97      
H           57.63       46.99       -36.75      
H           59.27       46.39       -38.71      
C           57.42       47.14       -37.81      
C           56.29       47.77       -38.3       
C           61.85       46.68       -42.77      
C           60.39       46.82       -42.76      
N           62.25       46.66       -41.4       
C           61.18       46.73       -40.56      
C           59.23       47.03       -43.57      
O           59.06       47.03       -44.78      
O           61.39       46.62       -39.33      
C           56.86       47.44       -43.1       
C           63.61       46.49       -40.82      
H           63.84274    45.42815    -40.74      
H           63.84       47.02       -39.92      
H           64.32       46.74       -41.65      
H           56.4        48.28       -42.59      
H           56.14363    46.62233    -43.0204    
H           56.93       47.74       -44.18      
N           58.18       47.21       -42.62      
C           60.02       46.96       -41.38      
C           58.67       47.12       -41.35      
C           64.53       45.87       -45.75      
C           63.22       45.75       -46.17      
S           64.48       46.29       -44.01      
H           61.14       45.89       -45.31      
H           63.09       45.42       -47.23      
C           62.2        46.07       -45.15      
C           62.69       46.36       -43.93      
C           68.29       44.58       -47.67      
C           68.24       45.45       -46.53      
C           67.0        44.28       -48.16      
N           67.47       46.6        -44.72      
N           68.82       46.43       -44.79      
N           69.3        45.85       -45.81      
C           69.74       46.83       -43.72      
H           66.79       43.72       -49.05      
H           64.87       44.49       -47.88      
H           69.16024    47.50639    -43.09193   
H           70.04       45.96       -43.1       
H           70.65163    47.22931    -44.16451   
C           65.81       44.74       -47.48      
C           67.01       45.88       -45.84      
C           65.75       45.49       -46.29      
C           71.94       43.58       -49.03      
C           71.04       42.86       -49.69      
S           71.1        44.72       -48.01      
H           68.81       42.57       -49.56      
H           71.29       42.08       -50.45      
C           69.68       43.14       -49.21      
C           69.51       44.11       -48.25      
C           76.12       45.68       -48.4       
C           75.39       44.86       -49.27      
N           75.46       45.61       -47.13      
C           74.29       44.73       -47.15      
C           75.33       44.38       -50.62      
O           75.92       44.52       -51.64      
O           73.6        44.61       -46.11      
C           73.52       43.36       -51.91      
C           75.66       46.44       -45.92      
H           76.27856    45.85055    -45.24322   
H           76.22       47.3        -46.16      
H           74.73       46.73       -45.36      
H           72.46       43.57       -51.96      
H           73.88702    42.36689    -52.16907   
H           73.88       44.08       -52.62      
N           74.0        43.79       -50.61      
C           74.27       44.28       -48.53      
C           73.39       43.69       -49.31      
C           78.9        48.44       -49.13      
C           78.76       47.64       -50.17      
S           77.76       48.0        -47.93      
H           77.69       45.77       -50.69      
H           79.38       47.69       -51.04      
C           77.82       46.55       -49.95      
C           77.25       46.54       -48.75      
C           80.84       52.32       -49.01      
C           80.54       51.54       -47.89      
C           80.53       51.67       -50.16      
N           79.74       49.84       -46.56      
N           80.34       50.83       -45.92      
N           80.71       51.87       -46.59      
C           80.3        51.04       -44.46      
H           80.73       52.17       -51.05      
H           79.67       50.0        -51.16      
H           80.27851    50.08001    -43.94419   
H           81.17       51.65       -44.34      
H           79.37807    51.57081    -44.22253   
C           79.89       50.43       -50.19      
C           79.91       50.27       -47.9       
C           79.61       49.69       -49.06      
C           82.37       55.98       -48.42      
C           82.31       55.73       -49.75      
S           81.79       54.58       -47.53      
H           81.73       54.12       -51.14      
H           82.6        56.46       -50.49      
C           81.9        54.38       -50.09      
C           81.58       53.61       -49.02      
C           84.17       60.43       -48.15      
C           83.9        59.3        -47.47      
N           83.62       60.37       -49.47      
C           82.94       59.13       -49.64      
C           83.91       58.55       -46.19      
O           84.36       58.81       -45.07      
O           82.34       58.89       -50.65      
C           83.67       56.26       -45.37      
C           84.01       61.12       -50.7       
H           83.34478    61.98044    -50.77231   
H           85.06       61.28       -50.78      
H           83.76       60.53       -51.62      
H           83.96       55.33       -45.91      
H           82.90861    56.03521    -44.62311   
H           84.61       56.66       -44.94      
N           83.28       57.26       -46.45      
C           83.15       58.37       -48.39      
C           82.92       57.14       -47.77      
C           86.65       62.93       -46.62      
C           85.71       63.68       -47.3       
S           86.28       61.27       -46.6       
H           84.06       63.05       -48.59      
H           85.82       64.73       -47.51      
C           84.78       62.81       -47.93      
C           84.79       61.52       -47.53      
C           90.35       64.39       -44.58      
C           89.18       65.24       -44.74      
C           90.1        63.12       -44.97      
N           87.21       65.89       -45.54      
N           87.85       66.85       -44.92      
N           89.04       66.54       -44.38      
C           87.16       68.1        -44.66      
H           90.85       62.35       -44.94      
H           88.89       61.65       -45.87      
H           86.24466    68.12112    -45.25145   
H           86.93       68.06       -43.63      
H           87.79853    68.92506    -44.97568   
C           88.9        62.69       -45.49      
C           87.99       64.8        -45.33      
C           87.78       63.47       -45.82      
C           94.15       64.88       -43.56      
C           93.58       66.12       -43.66      
S           93.0        63.74       -44.0       
H           91.56       66.92       -44.08      
H           94.13       67.07       -43.49      
C           92.18       66.05       -43.96      
C           91.72       64.83       -44.13      
C           98.21       65.76       -41.32      
C           97.53       64.86       -42.12      
N           97.48       66.9        -41.24      
C           96.12       66.63       -41.58      
C           97.5        63.52       -42.68      
O           98.32       62.61       -42.77      
O           95.29       67.47       -41.28      
C           95.75       62.04       -43.69      
C           97.83       68.28       -40.91      
H           97.6187     68.93504    -41.75521   
H           98.94       68.42       -40.76      
H           97.43       68.65       -39.99      
H           95.38       62.05       -44.69      
H           95.10962    61.55072    -42.95609   
H           96.67       61.44       -43.8       
N           96.19       63.41       -43.29      
C           96.22       65.37       -42.31      
C           95.41       64.55       -43.02      
C           101.87      65.81       -39.69      
C           101.78      64.85       -40.65      
S           100.28      66.36       -39.41      
H           100.25      63.88       -41.95      
H           102.66      64.27       -41.01      
C           100.47      64.66       -41.21      
C           99.58       65.6        -40.87      
C           105.42      67.58       -37.55      
C           105.39      66.26       -38.07      
C           104.23      68.19       -37.79      
N           104.63      64.47       -39.28      
N           105.86      64.28       -38.79      
N           106.39      65.32       -38.15      
C           106.83      63.46       -39.59      
H           104.17      69.22       -37.45      
H           102.2       68.25       -38.45      
H           106.72417   62.4088     -39.32191   
H           106.73      63.69       -40.66      
H           107.86861   63.69386    -39.35614   
C           103.04      67.65       -38.36      
C           104.24      65.71       -38.74      
C           103.02      66.37       -38.92      
C           108.68      69.57       -36.19      
C           108.83      68.22       -36.05      
S           107.02      69.86       -36.78      
H           107.74      66.34       -36.33      
H           109.74      67.84       -35.64      
C           107.7       67.43       -36.46      
C           106.59      68.13       -36.94      
C           112.33      71.69       -33.75      
C           111.24      71.8        -34.57      
N           112.51      70.32       -33.45      
C           111.55      69.49       -34.18      
C           110.49      72.72       -35.34      
O           110.62      73.95       -35.54      
O           111.51      68.33       -34.1       
C           108.88      72.57       -37.25      
C           113.35      69.65       -32.38      
H           112.74771   69.20001    -31.59079   
H           113.81      70.31       -31.71      
H           114.0       68.94       -32.83      
H           107.8       72.3        -37.34      
H           109.39782   72.3902     -38.19214   
H           108.83      73.59       -37.05      
N           109.51      71.89       -36.08      
C           110.78      70.48       -34.96      
C           109.67      70.59       -35.76      
C           114.71      74.49       -32.09      
C           113.5       75.03       -32.45      
S           114.69      72.81       -32.42      
H           111.59      74.41       -33.31      
H           113.24      76.1        -32.23      
C           112.59      74.07       -33.02      
C           113.04      72.79       -33.07      
C           118.37      76.61       -30.7       
C           118.26      75.2        -30.68      
C           117.28      77.23       -31.24      
N           117.26      73.18       -30.89      
N           118.53      73.09       -30.36      
N           119.14      74.26       -30.26      
C           118.99      71.88       -29.76      
H           117.19      78.33       -31.42      
H           115.25      77.05       -32.07      
H           118.90481   72.00779    -28.68087   
H           120.0       71.71       -30.12      
H           118.35364   71.05981    -30.09232   
C           116.07      76.53       -31.58      
C           117.09      74.5        -31.08      
C           115.94      75.14       -31.52      
H           60.77       33.45       18.12       
H           119.29      77.18       -30.66      
