472

C           16.06       96.35       8.95        
C           16.86       95.69       8.12        
S           16.7        97.9        9.2         
H           18.57       96.13       6.76        
H           16.64       94.66       7.93        
C           17.85       96.47       7.48        
C           17.92       97.74       8.01        
C           12.25       96.23       11.87       
C           13.29       95.61       11.25       
N           12.2        97.52       11.33       
C           13.35       97.83       10.58       
C           13.85       94.29       11.17       
O           13.57       93.23       11.75       
O           13.6        98.93       10.21       
C           15.38       93.33       9.56        
C           11.26       98.63       11.55       
H           10.76415    98.86376    10.60788    
H           11.66       99.46       12.13       
H           10.4        98.33       12.22       
H           16.42       93.33       9.31        
H           14.72654    92.99601    8.75406     
H           15.37       92.49       10.36       
N           14.88       94.48       10.21       
C           13.99       96.52       10.38       
C           14.96       95.79       9.75        
C           9.26        94.43       13.75       
C           9.79        93.66       12.82       
S           10.08       96.0        13.72       
H           11.23       93.73       11.25       
H           9.54        92.63       12.58       
C           10.71       94.29       12.0        
C           11.12       95.54       12.42       
C           5.65        93.6        16.12       
C           5.98        92.87       14.98       
C           6.58        94.56       16.4        
N           7.19        92.28       13.14       
N           6.09        91.64       13.31       
N           5.26        91.91       14.31       
C           5.68        90.94       12.14       
H           6.5         95.16       17.25       
H           8.35        95.65       16.03       
H           6.61434     90.73389    11.61787    
H           5.09        90.05       12.45       
H           5.04382     91.54003    11.48936    
C           7.73        94.82       15.67       
C           7.22        93.09       14.22       
C           8.11        94.14       14.59       
C           2.51        93.98       18.68       
C           2.39        92.83       17.94       
S           4.06        94.64       18.18       
H           3.46        91.64       16.41       
H           1.53        92.24       18.08       
C           3.45        92.52       17.07       
C           4.42        93.5        16.96       
C           -1.61       94.04       21.27       
C           -0.42       94.69       20.92       
N           -1.48       92.78       20.74       
C           -0.2        92.52       20.13       
C           0.28        95.97       21.01       
O           -0.08       97.03       21.53       
O           0.14        91.44       19.7        
C           2.14        96.97       19.64       
C           -2.65       91.88       20.42       
H           -2.89871    92.02212    19.36831    
H           -3.52       91.99       21.07       
H           -2.47       90.81       20.68       
H           2.21        96.98       18.49       
H           3.13379     97.12014    20.06183    
H           1.49        97.85       19.76       
N           1.44        95.79       20.12       
C           0.43        93.88       20.14       
C           1.58        94.47       19.69       
C           -4.99       96.07       21.4        
C           -5.0        94.95       22.23       
S           -3.46       96.09       20.56       
H           -3.6        93.44       22.93       
H           -5.85       94.66       22.86       
C           -3.75       94.26       22.28       
C           -2.79       94.81       21.46       
C           -8.41       98.54       20.12       
C           -7.03       99.0        19.95       
C           -8.5        97.33       20.78       
N           -4.8        98.89       20.0        
N           -5.3        99.93       19.33       
N           -6.62       100.11      19.25       
C           -4.42       100.85      18.61       
H           -9.46       96.96       21.04       
H           -7.56       95.67       21.71       
H           -3.3866     100.70043   18.92274    
H           -4.56       100.66      17.57       
H           -4.69356    101.8925    18.77266    
C           -7.35       96.61       21.24       
C           -5.87       98.15       20.33       
C           -6.04       96.94       21.03       
C           -11.27      101.18      19.0        
C           -11.87      100.02      19.59       
S           -9.51       100.9       18.96       
H           -11.16      98.08       20.43       
H           -12.96      99.88       19.63       
C           -10.94      99.0        19.98       
C           -9.61       99.3        19.74       
C           -15.12      104.08      18.21       
C           -13.74      103.89      18.18       
N           -15.66      102.9       18.62       
C           -14.66      101.86      18.77       
C           -12.48      104.53      17.75       
O           -12.23      105.66      17.34       
O           -15.13      100.8       19.08       
C           -10.38      103.51      17.12       
C           -17.04      102.47      18.55       
H           -17.41563   102.35215   19.56642    
H           -17.67      103.13      17.93       
H           -17.19      101.44      18.08       
H           -10.11      102.44      16.95       
H           -9.50909    104.07141   17.45829    
H           -10.81      103.91      16.19       
N           -11.51      103.48      17.96       
C           -13.35      102.5       18.53       
C           -12.0       102.33      18.54       
C           -17.27      107.34      18.37       
C           -16.21      107.55      17.57       
S           -17.32      105.64      18.87       
H           -14.52      106.39      16.78       
H           -16.03      108.5       17.1        
C           -15.44      106.38      17.38       
C           -15.88      105.22      17.95       
C           -20.51      109.99      19.99       
C           -19.4       110.53      19.29       
C           -20.46      108.6       20.06       
N           -17.44      110.42      18.15       
N           -17.89      111.57      18.42       
N           -19.14      111.8       18.87       
C           -17.13      112.69      17.78       
H           -21.25      108.02      20.55       
H           -19.47      106.76      19.69       
H           -16.07058   112.60468   18.02175    
H           -17.26      112.54      16.75       
H           -17.55036   113.63047   18.13624    
C           -19.42      107.81      19.55       
C           -18.35      109.68      18.74       
C           -18.31      108.28      18.83       
C           -23.87      111.3       21.48       
C           -23.38      112.29      20.73       
S           -22.78      109.96      21.56       
H           -21.66      112.62      19.45       
H           -23.87      113.19      20.53       
C           -22.17      111.95      20.15       
C           -21.72      110.72      20.46       
C           -26.9       109.84      24.86       
C           -26.39      110.88      24.16       
N           -26.53      108.7       24.13       
C           -25.67      108.98      22.98       
C           -26.46      112.27      24.06       
O           -26.94      113.12      24.73       
O           -25.19      108.08      22.26       
C           -25.07      113.95      22.91       
C           -27.28      107.45      24.15       
H           -27.93424   107.39248   23.28008    
H           -27.79      107.25      25.1        
H           -26.62      106.62      24.12       
H           -25.07      114.3       21.88       
H           -24.12016   114.08468   23.42745    
H           -25.76      114.57      23.32       
N           -25.53      112.62      22.98       
C           -25.62      110.42      23.04       
C           -25.05      111.49      22.33       
C           -29.02      109.93      28.25       
C           -28.36      111.07      28.04       
S           -28.81      108.96      26.84       
H           -26.76      111.84      26.75       
H           -28.33      111.91      28.73       
C           -27.51      111.06      26.89       
C           -27.55      109.96      26.11       
C           -31.13      108.7       31.74       
C           -30.2       109.68      31.76       
C           -31.39      108.13      30.53       
N           -28.72      111.16      30.92       
N           -28.85      111.21      32.22       
N           -29.79      110.42      32.78       
C           -28.23      112.45      32.81       
H           -32.17      107.32      30.44       
H           -30.88      107.87      28.42       
H           -27.30309   112.68897   32.28862    
H           -28.95      113.29      32.87       
H           -27.97552   112.28034   33.85621    
C           -30.66      108.44      29.35       
C           -29.47      110.03      30.65       
C           -29.66      109.38      29.44       
C           -33.88      107.34      34.39       
C           -32.65      107.56      35.02       
S           -33.52      107.62      32.71       
H           -30.61      108.24      34.54       
H           -32.53      107.43      36.08       
C           -31.65      108.03      34.16       
C           -31.92      108.22      32.85       
C           -37.11      106.28      37.76       
C           -36.81      106.51      36.41       
N           -35.92      106.25      38.38       
C           -34.87      106.66      37.55       
C           -37.47      106.72      35.18       
O           -38.66      106.87      34.87       
O           -33.71      106.6       38.01       
C           -36.71      106.47      32.83       
C           -35.59      105.86      39.76       
H           -35.52549   106.78471   40.33346    
H           -34.71      105.22      39.8        
H           -36.36      105.2       40.18       
H           -35.85      106.02      32.27       
H           -36.94148   107.40314   32.31641    
H           -37.46      105.74      32.75       
N           -36.36      106.74      34.26       
C           -35.43      106.77      36.24       
C           -35.12      106.91      34.94       
C           -40.43      105.12      39.67       
C           -40.66      105.02      38.34       
S           -38.85      105.75      39.97       
H           -39.62      105.56      36.5        
H           -41.6       104.61      37.9        
C           -39.55      105.49      37.61       
C           -38.36      105.85      38.29       
C           -43.47      104.6       42.97       
C           -42.1       104.68      43.18       
C           -43.8       104.99      41.7        
N           -39.85      104.79      42.74       
N           -40.19      104.51      44.02       
N           -41.44      104.4       44.34       
C           -39.09      104.51      44.97       
H           -44.83      105.12      41.35       
H           -43.25      105.51      39.75       
H           -38.23202   104.93532   44.44935    
H           -39.45      105.08      45.83       
H           -38.99319   103.48228   45.32002    
C           -42.8       105.16      40.69       
C           -41.08      104.73      42.15       
C           -41.42      104.98      40.76       
C           -46.7       104.65      45.18       
C           -45.75      104.1       45.99       
S           -46.25      104.67      43.53       
H           -43.55      103.85      45.75       
H           -45.95      104.02      47.09       
C           -44.51      104.06      45.35       
C           -44.61      104.38      43.99       
C           -50.94      106.8       44.82       
C           -50.17      105.81      45.42       
N           -50.21      107.2       43.68       
C           -48.78      106.78      43.8        
C           -50.2       104.86      46.47       
O           -51.17      104.59      47.18       
O           -47.88      107.08      42.97       
C           -48.54      103.4       47.65       
C           -50.72      107.74      42.44       
H           -50.33493   108.74392   42.26122    
H           -51.79      107.71      42.43       
H           -50.26      107.17      41.64       
H           -47.68      103.86      48.15       
H           -48.48959   102.33429   47.42678    
H           -49.4       103.52      48.37       
N           -48.88      104.32      46.54       
C           -48.83      105.84      44.89       
C           -48.07      104.96      45.59       
C           -54.37      108.71      45.35       
C           -54.35      107.68      46.2        
S           -52.85      108.79      44.51       
H           -52.96      106.04      46.81       
H           -55.21      107.53      46.76       
C           -53.19      106.91      46.17       
C           -52.31      107.28      45.19       
C           -57.65      111.45      44.07       
C           -57.79      110.47      45.08       
C           -56.37      111.44      43.58       
N           -57.25      108.85      46.51       
N           -58.56      109.27      46.68       
N           -58.89      110.2       45.83       
C           -59.26      109.11      47.93       
H           -56.16      112.24      42.95       
H           -54.37      110.64      43.55       
H           -58.52771   108.83801   48.69018    
H           -59.8       110.03      48.16       
H           -59.99131   108.34249   47.67658    
C           -55.33      110.6       44.07       
C           -56.78      109.61      45.47       
C           -55.48      109.6       44.99       
C           -59.97      114.23      42.46       
C           -60.37      114.07      43.72       
S           -58.65      113.15      42.13       
H           -59.99      112.76      45.39       
H           -61.12      114.67      44.16       
C           -59.76      112.99      44.38       
C           -58.74      112.42      43.67       
C           -62.55      117.89      40.91       
C           -61.7       116.86      40.62       
N           -62.65      117.99      42.25       
C           -61.89      117.02      42.92       
C           -61.12      116.11      39.52       
O           -61.19      116.21      38.29       
O           -61.88      116.85      44.15       
C           -59.49      114.26      39.24       
C           -63.25      119.03      43.08       
H           -64.18864   118.67174   43.50274    
H           -62.66      119.21      43.97       
H           -63.26      120.01      42.63       
H           -59.5       113.2       39.48       
H           -58.47482   114.64774   39.1554     
H           -59.94      114.19      38.27       
N           -60.32      115.07      40.12       
C           -61.22      116.28      41.82       
C           -60.46      115.19      41.5        
C           -64.49      120.11      38.35       
C           -63.37      119.64      37.75       
S           -64.6       119.62      40.03       
H           -61.61      118.48      38.39       
H           -63.15      119.71      36.68       
C           -62.57      118.94      38.71       
C           -63.04      118.85      39.97       
C           -67.46      122.83      36.41       
C           -67.71      122.29      37.69       
C           -66.3       122.32      35.78       
N           -67.32      120.95      39.55       
N           -68.41      121.78      39.63       
N           -68.68      122.55      38.57       
C           -69.43      121.77      40.69       
H           -66.02      122.58      34.76       
H           -64.84      120.75      35.83       
H           -69.29406   120.87569   41.29813    
H           -69.47      122.73      41.23       
H           -70.39019   121.63486   40.19213    
C           -65.52      121.28      36.44       
C           -66.85      121.33      38.35       
C           -65.57      120.91      37.73       
C           -68.98      125.75      34.33       
C           -69.74      125.6       35.46       
S           -67.74      124.56      34.32       
H           -69.84      124.33      37.21       
H           -70.46      126.37      35.68       
C           -69.36      124.54      36.31       
C           -68.26      123.89      35.86       
C           -70.57      129.87      32.37       
C           -69.84      128.79      32.27       
N           -71.45      129.6       33.39       
C           -71.21      128.37      34.05       
C           -68.78      128.15      31.45       
O           -68.23      128.49      30.45       
O           -71.89      127.91      34.96       
C           -67.73      125.9       31.37       
C           -72.66      130.33      33.86       
H           -73.55325   129.96426   33.35359    
H           -72.9       130.09      34.93       
H           -72.56      131.38      33.72       
H           -67.96      124.9       31.75       
H           -66.64976   126.03415   31.31352    
H           -68.12      126.0       30.35       
N           -68.37      126.92      32.15       
C           -70.11      127.89      33.33       
C           -69.15      126.84      33.32       
C           -68.76      133.22      31.01       
C           -70.14      133.44      31.14       
S           -68.45      131.64      31.68       
H           -72.01      132.3       31.48       
H           -70.62      134.33      30.78       
C           -70.9       132.29      31.49       
C           -70.17      131.2       31.79       
C           -65.69      136.35      30.25       
C           -65.36      134.95      30.42       
C           -67.01      136.62      30.44       
N           -65.73      132.84      31.04       
N           -64.51      133.07      30.7        
N           -64.13      134.33      30.37       
C           -63.51      132.03      30.85       
H           -67.36      137.61      30.2        
H           -69.1       135.82      30.77       
H           -63.97798   131.07942   30.59407    
H           -62.62      132.2       30.18       
H           -63.10928   132.07371   31.86273    
C           -68.02      135.58      30.74       
C           -66.34      134.0       30.73       
C           -67.72      134.22      30.79       
C           -62.7       138.45      28.86       
C           -63.7       139.31      29.1        
S           -63.23      136.8       29.03       
H           -65.74      139.22      29.9        
H           -63.67      140.32      28.86       
C           -64.9       138.64      29.56       
C           -64.76      137.32      29.74       
C           -58.85      141.19      27.7        
C           -59.39      139.93      28.03       
N           -59.91      142.08      27.64       
C           -61.15      141.47      27.94       
C           -58.99      138.57      28.24       
O           -57.89      138.04      28.39       
O           -62.25      142.05      28.17       
C           -60.29      136.54      28.05       
C           -59.89      143.47      27.2        
H           -60.673     143.63079   26.45895    
H           -58.99      143.78      26.68       
H           -59.98      144.13      28.06       
H           -61.21      136.28      27.48       
H           -59.98363   135.90538   28.88157    
H           -59.47      136.49      27.36       
N           -60.29      137.93      28.42       
C           -60.77      140.05      28.16       
C           -61.34      138.84      28.47       
C           -55.25      142.56      27.74       
C           -55.33      141.46      28.54       
S           -56.81      142.89      27.1        
H           -56.86      139.99      29.24       
H           -54.57      141.13      29.17       
C           -56.62      140.87      28.63       
C           -57.5       141.53      27.84       
C           -51.77      144.99      26.45       
C           -51.63      143.76      27.1        
C           -53.1       145.27      26.12       
N           -52.3       141.9       28.2        
N           -50.99      142.08      28.19       
N           -50.46      143.18      27.54       
C           -50.15      141.06      28.91       
H           -53.34      146.22      25.59       
H           -55.25      144.81      26.46       
H           -50.58945   140.90407   29.89522    
H           -50.15      140.19      28.24       
H           -49.1544    141.50091   28.95978    
C           -54.21      144.49      26.53       
C           -52.8       142.97      27.56       
C           -54.12      143.31      27.23       
C           -49.55      148.07      25.38       
C           -48.77      147.24      26.07       
S           -51.16      147.44      25.32       
H           -48.94      145.36      27.05       
H           -47.72      147.47      26.29       
C           -49.48      146.11      26.56       
C           -50.76      145.98      26.16       
C           -49.93      152.27      22.98       
C           -49.32      151.57      23.97       
N           -50.94      151.46      22.52       
C           -50.86      150.1       23.0        
C           -48.45      151.73      25.11       
O           -47.85      152.63      25.68       
O           -51.62      149.17      22.64       
C           -48.34      150.39      27.16       
C           -52.07      151.79      21.71       
H           -52.0984    151.32843   20.72296    
H           -52.05      152.87      21.58       
H           -53.09      151.52      22.14       
H           -47.89      149.5       27.45       
H           -49.21304   150.62477   27.76893    
H           -47.57      151.11      27.29       
N           -48.65      150.44      25.75       
C           -49.85      150.21      24.05       
C           -49.28      149.46      25.0        
C           -48.62      155.31      20.79       
C           -47.9       155.24      21.96       
S           -50.02      154.25      20.91       
H           -47.83      153.91      23.74       
H           -46.95      155.71      22.11       
C           -48.4       154.26      22.85       
C           -49.54      153.53      22.48       
C           -48.25      157.93      17.14       
C           -47.44      158.13      18.35       
C           -49.15      156.9       17.26       
N           -46.49      157.46      20.26       
N           -45.98      158.59      19.77       
N           -46.39      158.97      18.57       
C           -45.02      159.38      20.47       
H           -49.83      156.64      16.46       
H           -50.02      155.36      18.38       
H           -44.47165   159.96491   19.73156    
H           -44.34      158.78      21.02       
H           -45.53369   160.02739   21.18072    
C           -49.27      156.08      18.4        
C           -47.55      157.21      19.47       
C           -48.52      156.17      19.58       
H           18.81       98.45       8.0         
H           -48.62      158.83      16.66       
