472

C           28.05       59.33       45.16       
C           27.4        59.79       46.26       
S           27.12       58.05       44.46       
H           25.28       59.68       47.05       
H           27.72       60.66       46.91       
C           26.0        59.3        46.33       
C           25.75       58.26       45.47       
C           32.24       61.76       45.15       
C           31.45       60.74       44.6        
N           31.75       61.97       46.39       
C           30.59       61.16       46.66       
C           31.25       59.97       43.38       
O           31.9        59.89       42.41       
O           29.9        61.33       47.71       
C           29.7        58.18       42.56       
C           32.46       62.49       47.57       
H           32.60457    61.81775    48.41574    
H           31.93       63.32       47.95       
H           33.52       62.76       47.22       
H           28.68       58.07       42.32       
H           30.19255    57.25824    42.8696     
H           30.18       58.53       41.71       
N           29.99       59.28       43.56       
C           30.34       60.45       45.41       
C           29.43       59.69       44.78       
C           35.14       63.81       43.54       
C           35.02       62.65       42.93       
S           33.88       63.95       44.67       
H           33.92       60.7        43.06       
H           35.58       62.4        42.09       
C           34.11       61.67       43.53       
C           33.43       62.25       44.57       
C           37.01       67.57       42.3        
C           36.95       67.14       43.62       
C           36.58       66.56       41.43       
N           36.19       66.03       45.41       
N           36.66       67.26       45.73       
N           37.24       67.86       44.7        
C           36.91       67.72       47.09       
H           36.73       66.77       40.37       
H           35.71       64.6        41.02       
H           36.32339    67.08451    47.75343    
H           37.97       67.58       47.33       
H           36.57517    68.75361    47.17735    
C           35.98       65.33       41.79       
C           36.25       66.0        44.06       
C           35.84       64.98       43.15       
C           37.88       71.04       40.65       
C           38.7        70.95       41.74       
S           36.94       69.57       40.59       
H           39.14       69.51       43.34       
H           39.36       71.76       42.04       
C           38.6        69.69       42.46       
C           37.72       68.8        41.9        
C           37.52       75.8        39.96       
C           37.4        74.5        39.45       
N           38.57       75.71       40.87       
C           38.8        74.32       41.21       
C           36.85       73.8        38.33       
O           36.22       74.21       37.35       
O           39.6        74.05       42.06       
C           36.83       71.39       37.64       
C           39.21       76.79       41.6        
H           40.29991    76.79       41.61388    
H           38.65       76.96       42.49       
H           39.05       77.77       41.05       
H           35.83       70.91       37.8        
H           37.66709    70.75864    37.34205    
H           36.62       71.97       36.7        
N           37.1        72.39       38.67       
C           38.05       73.53       40.3        
C           37.61       72.27       39.94       
C           35.7        79.2        39.14       
C           35.71       78.46       38.07       
S           36.65       78.41       40.39       
H           36.25       76.35       37.57       
H           35.17       78.7        37.17       
C           36.32       77.21       38.26       
C           36.96       77.06       39.43       
C           33.52       82.78       40.38       
C           33.68       82.35       39.01       
C           34.32       82.03       41.24       
N           34.46       81.15       37.28       
N           33.59       82.06       36.88       
N           33.03       82.73       37.91       
C           33.01       81.87       35.52       
H           34.29       82.24       42.31       
H           35.5        80.31       41.58       
H           33.50987    81.05771    34.99236    
H           31.87       81.67       35.62       
H           33.15708    82.76648    34.91768    
C           35.06       80.88       40.78       
C           34.38       81.25       38.63       
C           35.12       80.45       39.49       
C           30.78       85.0        42.1        
C           30.83       85.31       40.78       
S           32.01       83.79       42.4        
H           31.87       84.74       38.94       
H           30.21       86.1        40.4        
C           31.77       84.55       40.03       
C           32.59       83.79       40.78       
C           30.21       85.9        46.68       
C           29.9        86.28       45.43       
N           30.39       84.52       46.65       
C           30.38       84.01       45.29       
C           29.51       87.46       44.63       
O           29.23       88.57       44.99       
O           30.43       82.88       44.96       
C           29.73       88.02       42.27       
C           30.62       83.61       47.74       
H           31.69497    83.46571    47.84822    
H           30.06       83.86       48.61       
H           30.32       82.59       47.5        
H           29.13       87.77       41.38       
H           30.72488    88.4096     42.05433    
H           29.09       88.85       42.72       
N           29.75       87.05       43.27       
C           30.12       85.24       44.48       
C           30.18       85.74       43.22       
C           30.59       87.82       50.06       
C           29.63       88.5        49.32       
S           31.18       86.53       49.13       
H           28.52       88.38       47.42       
H           29.28       89.4        49.66       
C           29.33       87.94       48.05       
C           29.99       86.75       47.87       
C           33.55       89.03       53.24       
C           32.61       89.97       52.65       
C           33.34       87.79       52.73       
N           31.04       90.75       51.24       
N           31.62       91.67       52.03       
N           32.45       91.25       52.94       
C           31.12       93.0        52.04       
H           33.93       86.98       53.11       
H           32.39       86.45       51.5        
H           30.64989    93.23505    51.08509    
H           30.5        93.09       52.91       
H           31.99311    93.64596    52.13228    
C           32.35       87.44       51.79       
C           31.64       89.64       51.65       
C           31.44       88.31       51.16       
C           36.62       88.98       55.79       
C           36.24       90.32       55.52       
S           35.58       88.03       54.83       
H           34.65       91.38       54.44       
H           36.91       91.17       55.81       
C           35.05       90.44       54.74       
C           34.64       89.3        54.23       
C           41.19       88.82       57.25       
C           39.91       88.24       57.3        
N           41.1        90.01       56.62       
C           39.73       90.31       56.31       
C           39.19       87.09       57.74       
O           39.4        86.08       58.36       
O           39.35       91.26       55.63       
C           36.62       86.68       57.87       
C           42.09       91.1        56.46       
H           41.99616    91.80017    57.2901     
H           41.9        91.6        55.51       
H           43.04       90.72       56.62       
H           35.87       86.26       57.16       
H           36.08337    87.36166    58.5299     
H           37.03       85.82       58.38       
N           37.77       87.37       57.26       
C           38.97       89.08       56.56       
C           37.74       88.53       56.44       
C           44.13       86.36       58.23       
C           44.56       87.64       58.46       
S           42.48       86.39       57.61       
H           43.69       89.71       58.24       
H           45.51       87.83       58.92       
C           43.55       88.64       58.15       
C           42.34       88.11       57.72       
C           45.47       82.27       59.01       
C           46.26       83.38       59.49       
C           44.34       82.55       58.35       
N           46.79       85.53       59.8        
N           47.55       84.75       60.51       
N           47.36       83.48       60.32       
C           48.8        85.29       61.09       
H           43.76       81.77       58.01       
H           43.06       83.9        57.5        
H           48.65026    86.34528    61.31817    
H           49.06       84.8        61.99       
H           49.62709    85.28311    60.38008    
C           44.01       83.92       58.04       
C           45.9        84.71       59.23       
C           44.74       85.02       58.48       
C           47.4        78.85       58.57       
C           46.09       78.61       58.9        
S           47.57       80.58       58.62       
H           44.09       79.77       59.03       
H           45.64       77.59       58.91       
C           45.23       79.73       59.07       
C           45.93       80.91       59.08       
C           49.37       74.52       57.76       
C           49.59       75.92       57.85       
N           48.08       74.2        58.04       
C           47.38       75.39       58.42       
C           50.51       77.04       57.71       
O           51.74       77.0        57.38       
O           46.22       75.32       58.89       
C           50.09       79.46       57.14       
C           47.42       72.93       58.08       
H           46.60283    72.9934     57.36145    
H           47.08       72.73       59.08       
H           48.04       72.08       57.75       
H           50.02       80.21       57.96       
H           49.57828    79.78946    56.23573    
H           51.14       79.24       56.92       
N           49.64       78.16       57.7        
C           48.28       76.47       58.1        
C           48.39       77.84       58.15       
C           52.04       71.76       56.88       
C           52.68       72.95       57.14       
S           50.36       71.99       56.98       
H           52.07       74.79       58.23       
H           53.77       73.01       57.12       
C           51.8        73.88       57.76       
C           50.48       73.58       57.55       
C           53.76       68.23       54.71       
C           52.5        68.13       55.4        
C           54.23       69.5        54.72       
N           50.82       68.85       56.64       
N           50.74       67.57       56.24       
N           51.71       67.09       55.53       
C           49.68       66.67       56.81       
H           55.13       69.78       54.16       
H           54.12       71.5        55.24       
H           49.09731    67.28112    57.49928    
H           49.07       66.31       56.03       
H           50.13359    65.86204    57.38407    
C           53.6        70.58       55.34       
C           51.93       69.28       56.05       
C           52.57       70.53       56.2        
C           54.78       65.2        52.2        
C           55.9        65.83       52.73       
S           53.42       65.98       52.95       
H           56.48       67.51       54.01       
H           56.87       65.49       52.54       
C           55.67       66.83       53.69       
C           54.31       67.05       54.0        
C           56.85       62.53       48.89       
C           55.65       62.94       49.46       
N           57.88       62.71       49.76       
C           57.36       63.42       50.94       
C           54.16       62.81       49.36       
O           53.42       62.04       48.73       
O           58.17       63.78       51.75       
C           52.28       63.95       50.53       
C           59.18       62.06       49.93       
H           58.97023    61.15582    50.50144    
H           59.92       62.58       50.54       
H           59.57       61.83       48.97       
H           51.96       64.96       50.83       
H           51.86322    63.1916     51.19274    
H           51.78       63.85       49.57       
N           53.71       63.7        50.36       
C           55.97       63.67       50.66       
C           54.79       64.26       51.13       
C           57.73       61.99       45.0        
C           56.36       61.98       45.19       
S           58.43       62.06       46.55       
H           54.89       61.93       46.93       
H           55.6        62.09       44.4        
C           55.93       62.04       46.61       
C           56.93       62.13       47.48       
C           60.3        61.92       41.45       
C           58.97       62.48       41.45       
C           60.73       61.51       42.66       
N           56.82       62.85       42.23       
N           57.03       63.16       40.95       
N           58.17       62.9        40.36       
C           56.03       63.84       40.13       
H           61.8        61.29       42.82       
H           60.31       61.24       44.78       
H           55.47559    64.58153    40.7052     
H           56.61       64.35       39.41       
H           55.41024    63.08643    39.64406    
C           59.83       61.42       43.81       
C           58.06       62.35       42.58       
C           58.55       61.88       43.84       
C           63.16       61.56       38.46       
C           62.03       62.2        38.07       
S           62.79       61.16       40.15       
H           60.06       62.96       38.83       
H           61.95       62.48       37.04       
C           60.99       62.37       39.01       
C           61.21       61.9        40.28       
C           66.62       62.31       35.16       
C           66.17       61.56       36.24       
N           65.56       63.16       34.83       
C           64.44       62.98       35.68       
C           66.62       60.56       37.28       
O           67.66       59.96       37.45       
O           63.38       63.58       35.51       
C           65.35       59.42       39.05       
C           65.49       64.34       33.95       
H           64.94917    63.99332    33.06942    
H           65.07       65.18       34.49       
H           66.38       64.64       33.61       
H           64.3        59.11       38.97       
H           65.72068    59.54356    40.06756    
H           65.93       58.69       38.5        
N           65.47       60.56       38.19       
C           64.88       61.95       36.65       
C           64.43       61.33       37.76       
C           70.07       62.52       33.18       
C           70.24       61.69       34.26       
S           68.45       63.03       33.06       
H           68.98       61.03       36.0        
H           71.13       61.09       34.3        
C           69.03       61.64       35.08       
C           67.96       62.32       34.59       
C           72.9        63.67       30.03       
C           71.8        64.43       30.32       
C           73.07       62.59       30.88       
N           69.89       65.11       31.4        
N           70.25       65.88       30.38       
N           71.39       65.5        29.69       
C           69.95       67.3        30.4        
H           73.88       61.9        30.71       
H           72.29       61.26       32.41       
H           68.97166    67.44571    30.85795    
H           70.66       67.81       31.03       
H           70.0295     67.6975     29.38818    
C           72.16       62.19       31.89       
C           70.82       64.08       31.31       
C           71.05       62.96       32.17       
C           75.84       65.45       27.88       
C           76.07       64.08       28.01       
S           74.36       65.78       28.79       
H           74.91       62.28       28.69       
H           76.96       63.58       27.66       
C           74.94       63.36       28.56       
C           73.96       64.12       29.11       
C           80.13       67.41       27.16       
C           78.76       67.57       27.12       
N           80.38       66.05       27.27       
C           79.15       65.36       27.42       
C           77.7        68.62       27.05       
O           77.71       69.82       26.81       
O           79.13       64.19       27.61       
C           75.14       68.44       26.9        
C           81.66       65.38       27.4        
H           81.89783    65.20512    26.35074    
H           82.43       65.98       27.93       
H           81.55       64.46       28.0        
H           74.47       68.36       27.75       
H           74.69389    68.09845    25.96596    
H           75.34       69.51       26.69       
N           76.47       67.83       27.12       
C           78.1        66.33       27.37       
C           76.74       66.51       27.47       
C           83.11       69.93       26.83       
C           82.01       70.46       26.2        
S           82.79       68.37       27.42       
H           79.96       69.84       25.92       
H           81.97       71.51       25.85       
C           80.92       69.59       26.29       
C           81.17       68.35       26.86       
C           87.05       71.85       27.09       
C           86.71       70.7        27.8        
C           86.0        72.37       26.44       
N           85.53       69.0        28.57       
N           86.76       69.02       29.02       
N           87.43       70.07       28.72       
C           87.18       68.12       30.13       
H           86.03       73.34       25.99       
H           84.01       72.44       25.73       
H           86.4819     67.28792    30.22167    
H           88.19       67.69       29.89       
H           87.18       68.63067    31.09297    
C           84.71       71.82       26.34       
C           85.45       70.1        27.71       
C           84.39       70.58       26.91       
C           90.69       73.48       27.29       
C           89.78       74.46       27.02       
S           89.83       71.97       27.35       
H           87.59       74.62       26.7        
H           89.98       75.54       27.0        
C           88.42       73.98       26.93       
C           88.22       72.69       27.19       
C           94.81       75.46       26.28       
C           94.13       74.51       27.02       
N           93.95       76.36       25.71       
C           92.6        75.86       25.98       
C           94.36       73.34       27.83       
O           95.35       72.68       28.18       
O           91.66       76.46       25.56       
C           92.83       71.54       28.67       
C           94.2        77.57       24.91       
H           93.80645    78.40003    25.49675    
H           93.82       77.43       23.87       
H           95.24       77.74       24.69       
H           92.12       70.92       28.17       
H           92.52772    71.65951    29.71041    
H           93.78       71.05       28.62       
N           93.06       72.8        28.01       
C           92.74       74.62       26.79       
C           92.13       73.57       27.31       
C           98.67       75.45       25.64       
C           98.36       74.84       26.73       
S           97.22       76.1        24.97       
H           96.71       74.56       28.16       
H           99.12       74.27       27.35       
C           97.01       74.86       27.18       
C           96.25       75.53       26.27       
C           102.55      75.75       23.5        
C           102.42      76.09       24.89       
C           101.33      75.39       22.94       
N           101.36      76.27       26.87       
N           102.62      76.79       26.8        
N           103.32      76.73       25.68       
C           103.0       77.82       27.7        
H           101.24      75.18       21.88       
H           99.23       75.13       23.07       
H           103.04305   77.38232    28.69734    
H           103.92      78.24       27.44       
H           102.18867   78.54667    27.65767    
C           100.12      75.31       23.67       
C           101.2       75.87       25.61       
C           99.98       75.56       25.01       
C           105.9       74.74       21.67       
C           106.17      75.79       22.5        
S           104.18      74.39       21.81       
H           105.13      77.08       23.98       
H           107.2       76.23       22.65       
C           105.02      76.28       23.2        
C           103.81      75.78       22.83       
C           107.59      71.28       18.88       
C           107.72      72.09       20.03       
N           106.35      71.69       18.32       
C           105.8       72.88       18.98       
C           108.58      72.23       21.24       
O           109.66      71.75       21.58       
O           104.88      73.63       18.65       
C           108.51      73.81       23.19       
C           105.65      71.3        17.05       
H           105.99824   71.91497    16.22016    
H           104.58      71.35       17.17       
H           105.74      70.29       16.82       
H           107.71      74.16       23.88       
H           109.38353   74.45787    23.11721    
H           108.79      72.88       23.74       
N           107.98      73.37       21.93       
C           106.67      73.02       20.1        
C           106.83      73.74       21.24       
C           109.52      68.28       17.27       
C           110.33      68.77       18.25       
S           108.17      69.3        17.06       
H           110.31      70.53       19.45       
H           111.25      68.34       18.6        
C           109.79      69.97       18.79       
C           108.51      70.28       18.35       
C           109.79      64.27       15.46       
C           110.52      64.63       16.65       
C           109.1       65.28       14.99       
N           111.28      65.87       18.34       
N           111.73      64.62       18.34       
N           111.35      63.8        17.37       
C           112.42      63.98       19.45       
H           108.55      65.1        14.15       
H           108.42      67.44       15.04       
H           112.78461   64.78072    20.09343    
H           113.16      63.3        19.05       
H           111.73884   63.35445    20.0269     
C           109.0       66.58       15.56       
C           110.44      65.84       17.3        
C           109.6       66.91       16.77       
H           25.07       57.47       45.73       
H           109.27      63.3        15.44       
