472

C           77.35       60.85       79.16       
C           76.89       59.89       78.32       
S           77.33       62.45       78.45       
H           76.36       59.77       76.15       
H           76.79       58.86       78.57       
C           76.65       60.38       77.0        
C           76.81       61.78       76.9        
C           77.59       58.19       83.17       
C           77.92       59.34       82.47       
N           76.81       57.43       82.37       
C           76.63       58.06       81.1        
C           78.56       60.58       82.63       
O           79.05       61.11       83.59       
O           75.85       57.81       80.26       
C           78.98       62.64       81.31       
C           76.25       56.1        82.51       
H           76.84183    55.37826    81.94704    
H           75.21       56.17       82.06       
H           76.11       55.88       83.59       
H           78.42       63.34       80.69       
H           80.03386    62.76731    81.06245    
H           78.8        63.08       82.28       
N           78.48       61.29       81.36       
C           77.37       59.31       81.17       
C           77.61       60.53       80.53       
C           77.52       57.65       87.12       
C           78.39       58.67       86.8        
S           76.78       57.1        85.64       
H           79.47       59.34       85.04       
H           78.85       59.23       87.57       
C           78.65       58.78       85.41       
C           77.89       57.92       84.57       
C           76.8        55.11       90.59       
C           77.58       56.24       90.67       
C           76.21       54.96       89.37       
N           78.55       58.11       90.06       
N           78.8        57.79       91.31       
N           78.12       56.8        91.77       
C           79.43       58.73       92.25       
H           75.5        54.14       89.26       
H           75.81       55.75       87.43       
H           80.04499    59.38033    91.62794    
H           78.64       59.37       92.68       
H           80.02925    58.2074     92.99558    
C           76.44       55.84       88.29       
C           77.79       57.13       89.6        
C           77.24       56.91       88.33       
C           75.68       52.33       93.13       
C           75.85       53.42       93.95       
S           75.9        52.69       91.39       
H           76.93       55.37       93.59       
H           75.77       53.4        95.05       
C           76.43       54.5        93.17       
C           76.35       54.29       91.75       
C           73.89       47.86       93.34       
C           74.72       48.84       93.91       
N           73.38       48.46       92.19       
C           73.78       49.82       92.01       
C           75.58       49.13       95.03       
O           75.93       48.49       96.0        
O           73.42       50.57       91.08       
C           77.43       50.82       95.33       
C           72.53       47.94       91.16       
H           72.95275    47.84841    90.1595     
H           71.55       48.49       91.11       
H           72.3        46.9        91.46       
H           77.47       51.87       95.49       
H           78.25051    50.55351    94.66378    
H           77.52       50.36       96.29       
N           76.14       50.43       94.72       
C           74.68       50.12       93.14       
C           75.44       51.05       93.66       
C           72.83       44.24       94.67       
C           73.9        44.77       95.28       
S           72.32       45.36       93.45       
H           75.23       46.45       95.21       
H           74.41       44.18       96.06       
C           74.33       45.99       94.82       
C           73.65       46.51       93.76       
C           70.97       40.42       95.12       
C           72.14       40.64       95.82       
C           70.53       41.38       94.31       
N           73.83       41.82       96.47       
N           73.89       40.61       97.06       
N           72.85       39.88       96.74       
C           74.71       40.32       98.26       
H           69.62       41.23       93.8        
H           70.57       43.35       93.53       
H           75.39985    41.14498    98.4378     
H           74.08       40.09       99.19       
H           75.3158     39.42954    98.09213    
C           71.12       42.67       94.14       
C           72.81       41.87       95.65       
C           72.27       42.95       94.8        
C           68.27       37.63       96.12       
C           69.53       37.09       96.24       
S           68.46       39.21       95.41       
H           71.65       37.68       95.93       
H           69.67       36.02       96.57       
C           70.59       37.93       95.83       
C           70.2        39.2        95.33       
C           63.49       37.34       96.66       
C           64.76       36.9        97.03       
N           63.78       38.41       95.81       
C           65.14       38.68       95.5        
C           65.35       35.86       97.85       
O           64.91       35.15       98.71       
O           65.44       39.53       94.7        
C           67.78       35.21       98.17       
C           62.94       39.57       95.49       
H           63.02431    40.2726     96.31906    
H           63.35       40.09       94.55       
H           61.98       39.36       95.28       
H           68.75       35.66       98.27       
H           67.74429    34.22444    97.70579    
H           67.36       35.08       99.18       
N           66.78       36.08       97.51       
C           65.78       37.64       96.29       
C           66.99       37.05       96.48       
C           59.76       36.72       97.99       
C           60.68       35.89       98.63       
S           60.6        37.63       96.71       
H           62.73       35.35       98.29       
H           60.49       35.27       99.51       
C           61.94       35.97       97.92       
C           62.18       36.98       97.05       
C           55.71       38.15       98.97       
C           56.24       38.16       97.64       
C           56.52       37.51       99.88       
N           57.68       37.72       96.06       
N           56.75       38.44       95.58       
N           55.75       38.74       96.46       
C           56.38       38.66       94.17       
H           56.14       37.45       100.94      
H           58.41       36.6        100.41      
H           57.09562    38.14985    93.52523    
H           55.42       38.29       93.98       
H           56.36557    39.72818    93.95348    
C           57.78       36.92       99.58       
C           57.48       37.55       97.34       
C           58.35       37.02       98.29       
C           52.26       39.57       100.57      
C           52.74       40.45       99.57       
S           53.4        38.25       100.6       
H           54.12       40.55       97.89       
H           52.26       41.37       99.39       
C           53.83       39.96       98.77       
C           54.45       38.85       99.3        
C           49.02       42.4        102.74      
C           49.46       41.1        102.48      
N           50.03       43.24       102.32      
C           51.14       42.48       101.8       
C           49.11       39.71       102.59      
O           48.19       39.02       103.06      
O           51.98       43.04       101.13      
C           50.21       37.53       101.89      
C           50.32       44.68       102.7       
H           50.97175    44.74376    103.57136   
H           49.42       45.24       102.94      
H           50.82       45.22       101.88      
H           51.14       37.15       102.29      
H           50.00664    37.10225    100.90828   
H           49.37       37.18       102.54      
N           50.21       38.98       101.92      
C           50.79       41.09       101.92      
C           51.21       39.88       101.52      
C           45.7        43.84       104.37      
C           45.81       42.54       104.55      
S           47.02       44.3        103.32      
H           47.35       40.99       104.31      
H           45.09       41.97       105.15      
C           47.03       42.01       104.11      
C           47.85       42.81       103.46      
C           41.96       46.24       104.34      
C           43.3        46.8        104.43      
C           42.02       44.88       104.32      
N           45.56       46.95       104.55      
N           44.98       48.14       104.59      
N           43.67       48.09       104.5       
C           45.62       49.29       105.14      
H           41.12       44.41       104.13      
H           43.15       43.05       104.18      
H           46.67234    49.12422    105.37065   
H           45.51       50.16       104.42      
H           45.08813    49.71549    105.99098   
C           43.23       44.12       104.37      
C           44.52       46.09       104.42      
C           44.49       44.64       104.44      
C           39.01       48.46       102.98      
C           38.46       47.28       103.52      
S           40.7        48.45       103.23      
H           39.21       45.32       104.15      
H           37.4        47.05       103.41      
C           39.44       46.35       103.88      
C           40.69       46.88       104.05      
C           35.15       51.28       102.66      
C           36.49       51.04       102.38      
N           34.87       50.36       103.63      
C           35.9        49.39       103.79      
C           37.59       51.57       101.58      
O           37.69       52.54       100.93      
O           35.85       48.58       104.67      
C           39.77       50.69       100.95      
C           33.47       49.86       103.92      
H           33.32776    48.92834    103.37238   
H           32.71       50.54       103.67      
H           33.37       49.69       105.01      
H           40.09       49.71       100.6       
H           40.63699    51.11292    101.45751   
H           39.57       51.18       99.98       
N           38.62       50.65       101.81      
C           36.98       49.85       102.97      
C           38.23       49.6        102.65      
C           32.94       54.4        101.4       
C           34.27       54.74       101.52      
S           32.85       52.69       101.75      
H           36.12       53.91       102.29      
H           34.69       55.74       101.43      
C           35.08       53.7        102.0       
C           34.42       52.53       102.39      
C           29.71       56.65       99.26       
C           29.41       55.48       100.04      
C           31.05       57.04       99.35       
N           29.79       53.69       101.44      
N           28.51       53.73       101.01      
N           28.25       54.71       100.16      
C           27.59       52.62       101.01      
H           31.38       57.94       98.87       
H           33.09       56.53       99.83       
H           28.10639    51.78958    101.4915    
H           26.77       52.89       101.68      
H           27.21123    52.4236     100.00697   
C           32.06       56.23       99.91       
C           30.39       54.79       100.84      
C           31.79       55.14       100.83      
C           26.85       57.86       96.88       
C           27.43       58.92       97.48       
S           27.59       56.44       97.5        
H           29.2        59.43       98.75       
H           27.12       59.94       97.25       
C           28.63       58.69       98.22       
C           28.68       57.34       98.54       
C           22.8        59.9        95.23       
C           23.68       58.86       95.2        
N           23.23       60.78       96.24       
C           24.48       60.35       96.82       
C           24.0        57.56       94.5        
O           23.4        56.97       93.64       
O           25.02       60.89       97.75       
C           25.73       55.76       94.73       
C           22.73       62.05       96.7        
H           23.29751    62.87943    96.27801    
H           22.79       62.1        97.71       
H           21.7        62.19       96.45       
H           26.12       55.11       95.47       
H           26.56139    55.98935    94.06345    
H           24.91       55.19       94.22       
N           25.09       56.97       95.25       
C           24.69       59.02       96.18       
C           25.6        57.95       96.12       
C           20.73       60.26       91.99       
C           20.04       60.9        93.0        
S           22.2        59.52       92.6        
H           20.27       61.21       95.16       
H           19.02       61.17       92.98       
C           20.73       60.85       94.2        
C           21.93       60.13       94.19       
C           20.1        59.6        87.73       
C           19.39       60.63       88.43       
C           20.74       58.77       88.58       
N           18.93       62.07       90.02       
N           18.36       62.4        88.88       
N           18.62       61.57       87.9        
C           17.93       63.79       88.52       
H           21.21       57.84       88.31       
H           21.52       58.28       90.54       
H           18.01498    64.42028    89.40523    
H           18.69       64.17       87.81       
H           16.95562    63.75364    88.03281    
C           20.87       58.99       89.98       
C           19.58       60.97       89.8        
C           20.41       60.1        90.6        
C           21.09       58.57       84.03       
C           20.08       59.51       83.96       
S           21.38       58.24       85.7        
H           18.81       60.69       85.33       
H           19.62       59.9        83.06       
C           19.61       59.93       85.22       
C           20.18       59.33       86.3        
C           22.46       58.03       79.42       
C           22.71       57.85       80.77       
N           21.2        58.62       79.3        
C           20.64       58.96       80.58       
C           23.72       57.31       81.61       
O           24.84       56.88       81.36       
O           19.51       59.52       80.63       
C           23.97       57.05       84.01       
C           20.32       58.61       78.12       
H           20.27045    59.54433    77.56082    
H           20.58       57.74       77.46       
H           19.24       58.56       78.38       
H           23.34       56.59       84.77       
H           24.43607    57.93271    84.44783    
H           24.65       56.35       83.67       
N           23.1        57.48       82.91       
C           21.63       58.46       81.56       
C           21.87       58.13       82.91       
C           24.4        56.8        76.25       
C           24.5        55.82       77.27       
S           23.48       58.19       76.74       
H           23.74       55.68       79.33       
H           25.11       54.94       77.25       
C           23.8        56.26       78.43       
C           23.2        57.52       78.3        
C           26.4        56.16       72.39       
C           25.96       57.44       72.77       
C           26.19       55.2        73.29       
N           24.95       59.03       74.03       
N           25.39       59.33       72.87       
N           26.0        58.53       72.05       
C           25.48       60.71       72.36       
H           26.65       54.21       73.25       
H           25.58       54.58       75.2        
H           24.72454    61.36377    72.79585    
H           26.54       61.12       72.56       
H           25.41561    60.67423    71.27249    
C           25.53       55.43       74.51       
C           25.19       57.68       73.99       
C           25.06       56.69       74.98       
C           28.26       54.64       69.12       
C           27.79       55.89       68.81       
S           27.77       54.27       70.77       
H           26.91       57.62       69.95       
H           28.02       56.35       67.85       
C           27.18       56.58       69.95       
C           27.08       55.85       71.08       
C           30.46       50.47       68.2        
C           29.69       51.52       67.72       
N           30.88       50.91       69.47       
C           30.39       52.12       69.88       
C           28.84       51.88       66.63       
O           28.54       51.43       65.57       
O           30.7        52.68       70.88       
C           27.59       54.02       66.03       
C           31.61       50.2        70.48       
H           30.96633    49.5708     71.09474    
H           32.39       49.59       70.03       
H           32.23       50.86       71.09       
H           28.07       55.02       65.87       
H           26.52898    54.02       66.27965    
H           27.66       53.6        65.03       
N           28.33       53.21       66.99       
C           29.59       52.57       68.71       
C           28.83       53.59       68.22       
C           31.43       47.05       66.76       
C           30.52       47.6        65.96       
S           31.8        48.12       68.04       
H           29.23       49.3        66.03       
H           30.14       47.13       65.08       
C           30.12       48.84       66.41       
C           30.66       49.26       67.56       
C           33.88       43.44       66.05       
C           32.81       43.83       65.21       
C           33.98       44.32       67.2        
N           30.98       44.98       64.51       
N           31.27       43.87       63.78       
N           32.43       43.3        64.0        
C           30.23       42.99       63.24       
H           34.8        44.15       67.86       
H           33.42       46.11       68.29       
H           29.37647    43.58196    62.9096     
H           30.66       42.42       62.43       
H           29.8964     42.30104    64.01598    
C           33.14       45.44       67.43       
C           32.0        45.01       65.47       
C           32.1        45.83       66.58       
C           36.14       40.55       64.43       
C           36.69       40.88       65.61       
S           34.71       41.46       64.19       
H           36.2        42.33       67.22       
H           37.65       40.46       65.85       
C           35.93       41.88       66.31       
C           34.82       42.31       65.68       
C           39.96       39.07       61.91       
C           38.68       39.43       61.88       
N           40.45       39.21       63.18       
C           39.48       39.74       64.09       
C           37.52       39.48       61.08       
O           37.31       39.36       59.89       
O           39.77       39.92       65.32       
C           35.04       39.46       61.6        
C           41.93       39.17       63.5        
H           42.29088    40.19817    63.52724    
H           42.5        38.57       62.78       
H           42.09       38.72       64.47       
H           34.31       40.27       61.93       
H           34.74133    38.45731    61.90579    
H           34.98       39.56       60.51       
N           36.45       39.72       62.06       
C           38.27       39.75       63.26       
C           36.9        39.97       63.33       
C           41.51       37.03       58.93       
C           40.82       38.05       58.46       
S           41.68       37.15       60.67       
H           39.53       39.68       59.21       
H           40.49       38.2        57.41       
C           40.27       38.9        59.45       
C           40.69       38.59       60.72       
C           43.4        33.6        56.79       
C           42.73       34.66       56.1        
C           43.33       33.73       58.13       
N           41.42       36.5        55.9        
N           41.86       35.97       54.77       
N           42.42       34.79       54.81       
C           41.27       36.45       53.51       
H           43.78       33.03       58.8        
H           42.82       34.76       59.97       
H           40.5759     37.24226    53.79045    
H           42.07       36.76       52.87       
H           40.75584    35.64707    52.98176    
C           42.76       34.84       58.82       
C           42.07       35.7        56.78       
C           42.11       35.9        58.17       
C           45.44       30.27       55.74       
C           45.13       30.97       54.56       
S           44.85       31.18       57.09       
H           44.13       32.86       54.09       
H           45.43       30.62       53.58       
C           44.45       32.21       54.85       
C           44.16       32.48       56.16       
C           47.39       26.53       57.72       
C           47.44       27.42       56.71       
N           46.48       26.98       58.66       
C           45.82       28.17       58.18       
C           48.08       27.7        55.43       
O           49.12       27.21       54.9        
O           44.88       28.65       58.86       
C           47.88       29.38       53.63       
C           46.23       26.44       60.06       
H           46.68491    27.11186    60.78785    
H           46.55       25.43       60.25       
H           45.16       26.32       60.24       
H           47.86       30.51       53.61       
H           47.2646     28.92578    52.85343    
H           48.96       29.16       53.66       
N           47.38       28.86       54.94       
C           46.43       28.39       56.89       
C           46.36       29.18       55.76       
C           48.43       22.71       57.61       
C           49.22       23.51       56.76       
S           47.43       23.82       58.54       
H           49.67       25.56       56.41       
H           49.86       23.06       56.0        
C           49.09       24.89       56.97       
C           48.11       25.25       57.82       
C           47.15       18.49       57.47       
C           48.45       18.82       57.13       
C           46.31       19.52       57.86       
N           50.19       20.19       56.79       
N           50.43       18.85       56.56       
N           49.48       17.97       56.81       
C           51.76       18.38       56.63       
H           45.25       19.25       58.03       
H           46.07       21.62       58.36       
H           51.69599    17.41989    57.14206    
H           52.37       19.02       57.29       
H           52.12017    18.28113    55.60599    
C           46.76       20.89       57.97       
C           48.89       20.16       57.19       
C           48.0        21.28       57.57       
H           76.36       62.34       76.14       
H           46.94       17.47       57.77       
