472

C           51.54       60.68       18.98       
C           50.37       60.65       19.63       
S           51.78       62.33       18.4        
H           48.73       61.96       20.04       
H           50.04       59.75       20.14       
C           49.7        61.93       19.69       
C           50.32       63.0        19.12       
C           52.47       56.14       18.97       
C           52.98       57.4        18.87       
N           51.17       56.16       18.57       
C           50.69       57.52       18.61       
C           54.21       58.14       18.96       
O           55.35       57.88       19.37       
O           49.56       57.85       18.59       
C           54.8        60.48       18.87       
C           50.35       55.22       17.77       
H           50.24338    55.66781    16.78197    
H           49.42       54.99       18.25       
H           50.85       54.26       17.51       
H           54.44       61.45       19.27       
H           55.21792    60.71057    17.89006    
H           55.62       60.19       19.56       
N           53.78       59.53       18.98       
C           51.9        58.31       18.64       
C           52.38       59.61       18.68       
C           53.88       52.63       20.02       
C           54.78       53.59       20.32       
S           52.39       53.46       19.65       
H           55.05       55.79       20.04       
H           55.75       53.33       20.65       
C           54.43       54.87       19.92       
C           53.17       54.96       19.42       
C           53.82       48.43       21.19       
C           52.87       48.91       20.3        
C           54.77       49.29       21.62       
N           51.88       50.39       18.99       
N           51.32       49.21       18.96       
N           51.78       48.31       19.79       
C           50.34       48.84       17.9        
H           55.43       49.05       22.42       
H           55.4        51.37       21.77       
H           49.68372    49.69602    17.74306    
H           50.86       48.55       16.99       
H           49.66768    48.089      18.31484    
C           54.72       50.66       21.24       
C           52.88       50.21       19.77       
C           53.85       51.17       20.33       
C           54.32       44.69       22.7        
C           53.26       44.71       21.87       
S           54.98       46.31       22.69       
H           52.22       46.09       20.5        
H           52.82       43.8        21.59       
C           52.96       45.99       21.24       
C           53.82       46.99       21.62       
C           53.62       40.68       25.38       
C           54.4        41.74       25.07       
N           52.53       40.61       24.53       
C           52.63       41.76       23.6        
C           55.59       42.46       25.42       
O           56.38       42.27       26.29       
O           51.9        41.8        22.63       
C           56.64       44.69       24.89       
C           51.32       39.85       24.49       
H           50.50001    40.49232    24.81116    
H           51.26       38.99       25.09       
H           51.08       39.51       23.5        
H           56.08       45.61       24.98       
H           57.53174    44.76077    24.2672     
H           57.03       44.37       25.86       
N           55.72       43.59       24.5        
C           53.83       42.49       23.95       
C           54.63       43.64       23.66       
C           53.95       37.85       28.07       
C           55.13       38.46       27.94       
S           52.74       38.51       27.07       
H           55.99       40.01       26.56       
H           56.0        38.27       28.56       
C           55.14       39.5        27.0        
C           53.92       39.67       26.37       
C           53.2        34.98       31.33       
C           54.18       34.81       30.37       
C           52.47       36.13       31.09       
N           55.45       35.17       28.53       
N           55.6        34.02       29.08       
N           55.02       33.77       30.18       
C           56.53       33.02       28.59       
H           51.65       36.31       31.76       
H           52.12       37.92       29.86       
H           56.96475    33.29083    27.62784    
H           57.21       32.89       29.38       
H           56.05668    32.04423    28.48077    
C           52.69       37.03       30.0        
C           54.52       35.72       29.32       
C           53.68       36.83       29.08       
C           52.1        33.15       34.75       
C           52.97       32.37       34.12       
S           51.86       34.57       33.78       
H           54.12       32.4        32.2        
H           53.37       31.5        34.5        
C           53.41       32.91       32.83       
C           52.9        34.09       32.42       
C           52.69       31.83       39.34       
C           51.93       32.38       38.37       
N           53.68       31.15       38.65       
C           53.77       31.55       37.28       
C           50.7        33.13       38.16       
O           49.69       33.24       38.83       
O           54.53       31.01       36.55       
C           49.5        34.14       36.29       
C           54.55       30.09       39.13       
H           55.50615    30.49144    39.46575    
H           54.07       29.38       39.88       
H           54.61       29.33       38.41       
H           49.3        33.82       35.24       
H           49.66118    35.21217    36.40212    
H           48.61       33.89       36.93       
N           50.66       33.42       36.79       
C           52.56       32.27       37.06       
C           51.83       32.99       36.15       
C           52.91       31.93       43.32       
C           51.79       32.72       42.87       
S           53.68       31.3        41.93       
H           50.76       33.19       40.95       
H           51.17       33.32       43.5        
C           51.63       32.73       41.46       
C           52.58       31.96       40.83       
C           54.68       31.17       47.32       
C           53.74       32.22       47.12       
C           54.99       30.45       46.16       
N           52.17       33.41       46.05       
N           52.23       33.6        47.34       
N           53.2        33.0        48.0        
C           51.29       34.52       48.02       
H           55.7        29.63       46.13       
H           54.48       29.97       44.14       
H           51.01448    35.29003    47.29942    
H           50.47       33.94       48.34       
H           51.80778    34.89784    48.90162    
C           54.35       30.7        44.92       
C           53.12       32.47       45.9        
C           53.5        31.73       44.69       
C           56.29       30.92       50.9        
C           56.68       29.85       50.2        
S           55.18       31.92       49.96       
H           56.17       28.98       48.21       
H           57.37       29.07       50.61       
C           56.09       29.85       48.9        
C           55.33       30.93       48.63       
C           57.66       29.81       55.37       
C           57.32       30.76       54.48       
N           58.03       28.71       54.65       
C           57.61       28.76       53.28       
C           57.11       32.22       54.46       
O           57.03       33.14       55.21       
O           57.58       27.77       52.56       
C           56.61       33.68       52.47       
C           59.13       27.75       54.96       
H           59.94703    28.0555     54.30637    
H           58.83       26.74       54.77       
H           59.49       27.98       56.0        
H           55.94       33.74       51.58       
H           57.62453    33.94049    52.16838    
H           56.28       34.29       53.32       
N           56.68       32.31       53.05       
C           57.23       30.17       53.15       
C           56.66       31.1        52.32       
C           58.89       30.83       58.94       
C           58.73       29.46       58.81       
S           58.57       31.56       57.39       
H           57.65       28.01       57.33       
H           59.01       28.85       59.62       
C           58.01       29.04       57.63       
C           57.86       30.08       56.75       
C           60.97       32.95       62.33       
C           60.07       33.6        61.47       
C           60.95       31.58       62.23       
N           58.6        33.82       59.74       
N           58.71       34.89       60.45       
N           59.58       34.89       61.44       
C           57.95       36.04       60.17       
H           61.45       31.01       62.95       
H           60.31       29.82       61.2        
H           57.06647    35.69086    59.63561    
H           57.71       36.51       61.08       
H           58.54099    36.70838    59.54383    
C           60.33       30.87       61.15       
C           59.35       32.94       60.37       
C           59.55       31.53       60.11       
C           63.14       34.22       65.37       
C           62.17       35.14       65.13       
S           63.0        32.93       64.18       
H           60.54       35.41       63.58       
H           62.2        36.03       65.74       
C           61.3        34.82       64.04       
C           61.63       33.67       63.43       
C           67.04       33.18       68.01       
C           65.78       33.79       67.95       
N           67.43       33.16       66.67       
C           66.3        33.19       65.84       
C           64.74       34.39       68.76       
O           64.62       34.67       69.96       
O           66.41       33.08       64.63       
C           62.23       34.4        68.42       
C           68.77       33.22       66.11       
H           68.9424     34.17536    65.61436    
H           69.05       32.32       65.48       
H           69.51       33.33       66.88       
H           61.7        33.57       67.98       
H           61.67213    35.33462    68.36204    
H           62.36       34.05       69.45       
N           63.58       34.46       67.81       
C           65.25       33.74       66.63       
C           63.99       34.18       66.52       
C           69.55       32.62       71.09       
C           68.66       33.66       71.36       
S           69.22       31.99       69.49       
H           67.0        34.74       70.29       
H           68.55       34.29       72.29       
C           67.75       33.93       70.24       
C           67.97       33.14       69.13       
C           72.24       30.28       73.7        
C           71.71       31.56       74.08       
C           71.83       29.92       72.43       
N           70.84       33.6        73.76       
N           71.3        33.42       75.03       
N           71.8        32.21       75.29       
C           70.87       34.4        76.04       
H           72.08       28.91       72.01       
H           71.04       30.37       70.54       
H           70.44549    35.29938    75.59391    
H           70.16       34.05       76.69       
H           71.73629    34.66935    76.64422    
C           71.11       30.77       71.54       
C           71.06       32.43       73.18       
C           70.56       31.98       71.89       
C           74.13       28.22       76.46       
C           74.29       27.57       75.31       
S           72.95       29.46       76.26       
H           73.8        28.05       73.17       
H           74.77       26.66       75.24       
C           73.71       28.27       74.24       
C           73.0        29.39       74.62       
C           75.64       25.21       79.83       
C           75.24       26.44       79.49       
N           75.71       24.43       78.73       
C           75.23       25.18       77.59       
C           74.99       27.69       80.11       
O           74.94       28.11       81.25       
O           75.22       24.79       76.47       
C           74.33       29.92       79.25       
C           76.36       23.14       78.59       
H           75.7496     22.42898    78.03326    
H           76.56       22.62       79.52       
H           77.31       23.39       78.11       
H           73.48       30.3        78.74       
H           75.31408    30.38309    79.17764    
H           74.05       30.04       80.26       
N           74.44       28.51       79.01       
C           74.92       26.49       78.12       
C           74.43       27.77       77.76       
C           77.32       24.43       83.33       
C           76.58       23.33       82.96       
S           77.31       25.63       82.06       
H           75.09       22.92       81.29       
H           76.46       22.53       83.64       
C           75.86       23.56       81.73       
C           76.02       24.83       81.21       
C           78.85       25.73       87.26       
C           77.98       24.6        87.12       
C           79.28       26.3        86.05       
N           76.85       23.03       86.05       
N           76.84       22.89       87.4        
N           77.46       23.83       88.08       
C           76.45       21.68       88.07       
H           79.9        27.28       86.01       
H           79.4        26.09       83.93       
H           76.17712    20.97936    87.28086    
H           77.36       21.28       88.64       
H           75.70722    21.93227    88.8268     
C           78.85       25.77       84.82       
C           77.52       24.17       85.84       
C           77.87       24.8        84.65       
C           80.7        27.35       90.31       
C           79.85       26.47       90.79       
S           80.79       27.23       88.59       
H           78.17       25.17       90.04       
H           79.67       26.32       91.83       
C           79.1        25.73       89.82       
C           79.44       26.13       88.55       
C           81.6        29.59       94.43       
C           81.99       29.37       93.17       
N           80.32       29.08       94.55       
C           79.84       28.63       93.24       
C           83.02       29.47       92.19       
O           84.07       30.07       92.14       
O           78.71       28.14       93.15       
C           83.43       28.76       89.79       
C           79.53       28.79       95.69       
H           78.79426    29.57574    95.86144    
H           78.94       27.99       95.45       
H           80.1        28.4        96.53       
H           82.85       28.88       88.86       
H           84.0294     27.85006    89.76111    
H           83.95       29.72       89.76       
N           82.58       28.85       90.98       
C           80.99       28.65       92.41       
C           81.35       28.29       91.17       
C           83.13       31.54       97.43       
C           84.05       31.49       96.45       
S           81.82       30.46       97.06       
H           84.2        30.57       94.49       
H           84.93       32.08       96.43       
C           83.57       30.73       95.32       
C           82.29       30.2        95.44       
C           82.49       34.07       100.94      
C           83.67       34.26       100.15      
C           81.59       33.16       100.43      
N           85.11       33.74       98.54       
N           85.54       34.67       99.29       
N           84.71       35.09       100.34      
C           86.98       35.09       99.25       
H           80.7        32.94       100.94      
H           81.06       31.56       99.14       
H           87.3961     34.78869    98.28866    
H           87.04       36.2        99.3        
H           87.51307    34.64222    100.0887    
C           81.86       32.32       99.42       
C           83.96       33.37       99.04       
C           83.04       32.36       98.63       
C           80.21       35.76       103.66      
C           81.09       36.71       103.22      
S           80.71       34.25       103.04      
H           82.88       36.88       101.75      
H           80.96       37.79       103.32      
C           82.14       36.26       102.33      
C           81.98       34.96       102.03      
C           75.53       35.51       104.45      
C           76.74       36.07       104.85      
N           75.75       34.37       103.69      
C           77.17       34.34       103.32      
C           77.41       37.11       105.57      
O           77.05       37.99       106.37      
O           77.56       33.5        102.52      
C           79.75       36.97       106.58      
C           74.88       33.54       102.85      
H           74.69947    34.0888     101.9257    
H           75.36       32.54       102.88      
H           73.93       33.49       103.22      
H           80.61       37.59       106.27      
H           80.09567    36.0122     106.96888   
H           79.11       37.52       107.22      
N           78.83       36.79       105.47      
C           77.8        35.43       104.14      
C           79.03       36.01       104.38      
C           71.77       36.26       105.41      
C           72.58       37.25       105.86      
S           72.79       34.94       105.0       
H           74.68       37.88       105.64      
H           72.19       38.14       106.31      
C           73.99       37.11       105.5       
C           74.2        35.93       104.83      
C           67.4        35.14       105.62      
C           67.94       36.24       106.33      
C           68.4        34.37       105.14      
N           69.44       37.77       107.08      
N           68.17       38.03       107.43      
N           67.23       37.13       107.08      
C           67.79       39.01       108.46      
H           68.16       33.44       104.65      
H           70.41       33.97       104.59      
H           68.71398    39.48241    108.79346   
H           67.14       39.8        108.11      
H           67.2838     38.46162    109.25445   
C           69.75       34.73       105.03      
C           69.31       36.6        106.37      
C           70.33       35.94       105.61      
C           63.79       33.85       104.85      
C           63.6        35.11       105.34      
S           65.48       33.39       104.91      
H           64.86       36.58       106.45      
H           62.6        35.57       105.45      
C           64.82       35.69       105.85      
C           65.95       34.88       105.63      
C           59.76       32.63       102.41      
C           61.03       32.3        102.83      
N           59.39       33.69       103.16      
C           60.49       34.16       103.96      
C           62.04       31.32       102.69      
O           62.22       30.35       102.02      
O           60.5        35.23       104.6       
C           64.19       30.78       103.8       
C           58.03       34.23       103.24      
H           57.69344    34.12259    104.27116   
H           57.42       33.53       102.67      
H           57.87       35.24       102.81      
H           64.57       30.85       104.77      
H           64.98491    30.76593    103.05433   
H           63.57       29.87       103.74      
N           63.14       31.76       103.54      
C           61.56       33.26       103.77      
C           62.84       33.0        104.14      
C           57.94       30.43       99.56       
C           58.66       29.64       100.39      
S           58.04       32.11       100.13      
H           59.73       29.69       102.3       
H           58.83       28.55       100.17      
C           59.13       30.27       101.58      
C           58.92       31.66       101.63      
C           56.45       29.47       95.5        
C           56.86       28.5        96.48       
C           56.65       30.7        95.98       
N           57.46       27.6        98.39       
N           57.2        26.62       97.5        
N           56.86       27.15       96.32       
C           56.99       25.25       97.97       
H           56.37       31.55       95.41       
H           57.17       32.05       97.47       
H           57.25855    25.1652     99.02299    
H           55.92       25.11       97.84       
H           57.5727     24.52517    97.40151    
C           57.12       31.03       97.25       
C           57.42       28.77       97.72       
C           57.52       30.07       98.17       
C           55.12       28.18       92.04       
C           54.89       29.51       92.11       
S           55.78       27.59       93.56       
H           55.34       31.23       93.42       
H           54.53       30.11       91.3        
C           55.4        30.12       93.3        
C           55.88       29.17       94.18       
C           52.73       27.09       88.02       
C           53.61       26.72       88.99       
N           52.38       28.39       88.21       
C           52.86       28.82       89.55       
C           54.27       25.54       89.5        
O           54.18       24.38       89.19       
O           52.58       29.94       90.0        
C           55.63       25.02       91.51       
C           51.79       29.34       87.27       
H           52.57473    30.06766    87.06312    
H           50.92       29.8        87.65       
H           51.51       28.83       86.38       
H           55.45       24.95       92.6        
H           56.71119    25.07617    91.38363    
H           55.41       24.02       91.1        
N           54.88       26.01       90.74       
C           53.73       27.75       89.99       
C           54.58       27.36       90.97       
C           51.53       25.05       84.84       
C           52.79       24.72       85.22       
S           51.01       26.33       85.87       
H           54.35       25.22       86.64       
H           53.29       23.86       84.78       
C           53.37       25.43       86.29       
C           52.45       26.32       86.84       
C           48.48       22.9        82.46       
C           49.9        22.52       82.44       
C           48.31       23.87       83.36       
N           52.09       22.77       82.7        
N           51.78       21.92       81.78       
N           50.45       21.58       81.65       
C           52.78       21.18       80.97       
H           47.3        24.17       83.51       
H           48.85       25.23       84.96       
H           53.68862    20.97252    81.53521    
H           53.03       21.72       80.09       
H           52.30427    20.26991    80.60459    
C           49.25       24.54       84.15       
C           50.89       23.28       83.12       
C           50.6        24.35       84.0        
H           50.18       64.03       19.39       
H           47.7        22.18       82.36       
