472

C           81.67       14.96       28.76       
C           80.82       15.97       29.03       
S           80.78       13.63       28.19       
H           78.66       16.35       29.34       
H           81.2        16.94       29.33       
C           79.42       15.64       29.01       
C           79.22       14.45       28.38       
C           85.98       17.14       28.1        
C           85.18       16.02       28.27       
N           85.08       18.24       28.18       
C           83.73       17.75       28.45       
C           85.28       14.58       28.22       
O           86.21       13.79       28.01       
O           82.8        18.57       28.66       
C           83.79       12.76       28.95       
C           85.34       19.69       28.09       
H           85.11837    20.15542    29.0504     
H           84.67       20.02       27.31       
H           86.4        19.92       27.84       
H           82.92       12.24       28.56       
H           83.84008    12.62406    30.03033    
H           84.65       12.2        28.49       
N           83.99       14.13       28.53       
C           83.8        16.29       28.45       
C           83.11       15.12       28.58       
C           89.85       17.57       28.13       
C           89.57       16.4        27.45       
S           88.37       18.33       28.68       
H           87.79       15.3        26.75       
H           90.35       15.68       27.02       
C           88.19       16.14       27.37       
C           87.35       17.18       27.79       
C           93.87       18.92       29.51       
C           92.71       19.8        29.46       
C           93.58       17.66       29.07       
N           90.61       20.4        29.21       
N           91.37       21.31       29.8        
N           92.58       20.97       30.12       
C           90.84       22.52       30.44       
H           94.31       16.88       29.26       
H           92.12       16.19       28.41       
H           89.81134    22.72156    30.14113    
H           90.88       22.32       31.56       
H           91.47832    23.36875    30.19449    
C           92.25       17.25       28.69       
C           91.42       19.35       29.0        
C           91.18       18.06       28.39       
C           96.96       20.0        31.84       
C           97.45       19.22       30.82       
S           95.21       20.21       31.6        
H           96.48       18.04       29.08       
H           98.5        18.92       30.63       
C           96.4        18.72       29.98       
C           95.12       19.22       30.24       
C           100.84      21.52       34.22       
C           99.45       21.36       34.18       
N           101.34      21.14       33.0        
C           100.27      20.57       32.18       
C           98.23       21.57       34.89       
O           98.0        21.98       36.03       
O           100.49      20.15       31.04       
C           95.8        20.99       34.61       
C           102.66      21.42       32.48       
H           102.59128   22.35462    31.92335    
H           103.03      20.67       31.82       
H           103.35      21.57       33.27       
H           95.23       20.25       34.14       
H           95.27963    21.93679    34.46545    
H           95.95       20.79       35.64       
N           97.18       21.0        34.08       
C           99.06       20.76       32.98       
C           97.72       20.62       32.91       
C           103.35      22.26       37.24       
C           102.12      22.8        37.48       
S           103.23      21.36       35.77       
H           100.23      23.11       36.48       
H           101.89      23.12       38.45       
C           101.18      22.68       36.41       
C           101.68      22.03       35.31       
C           106.85      21.6        39.78       
C           107.0       21.67       38.42       
C           105.6       21.82       40.3        
N           106.27      21.83       36.29       
N           107.58      21.7        36.41       
N           108.05      21.53       37.61       
C           108.45      22.08       35.31       
H           105.3       21.88       41.38       
H           103.44      22.28       40.0        
H           108.39346   21.41563    34.44773    
H           108.09      23.09       34.97       
H           109.4851    22.12929    35.64799    
C           104.39      22.09       39.46       
C           105.8       21.83       37.59       
C           104.45      22.09       38.09       
C           109.19      20.48       42.75       
C           109.95      20.69       41.62       
S           107.58      20.87       42.25       
H           109.78      21.3        39.54       
H           110.99      20.45       41.59       
C           109.33      21.2        40.52       
C           107.97      21.35       40.65       
C           109.54      20.43       47.61       
C           109.84      19.88       46.4        
N           108.8       21.58       47.27       
C           108.53      21.7        45.84       
C           110.52      18.79       45.77       
O           111.21      17.89       46.2        
O           108.0       22.72       45.42       
C           110.91      18.01       43.47       
C           108.0       22.5        48.13       
H           107.02732   22.0447     48.31626    
H           108.37      22.69       49.12       
H           107.83      23.47       47.57       
H           111.2       18.59       42.59       
H           110.23674   17.22327    43.12959    
H           111.83      17.66       43.98       
N           110.27      18.94       44.35       
C           109.26      20.6        45.23       
C           109.61      20.04       44.02       
C           110.54      19.73       51.43       
C           111.1       18.83       50.57       
S           109.54      20.81       50.49       
H           111.29      18.51       48.44       
H           111.57      17.92       50.85       
C           110.8       19.04       49.21       
C           109.96      20.05       48.93       
C           111.28      19.99       55.73       
C           111.55      18.8        55.02       
C           110.75      21.02       54.99       
N           111.49      17.4        53.27       
N           112.03      16.85       54.36       
N           112.18      17.62       55.42       
C           112.18      15.39       54.47       
H           110.65      21.98       55.48       
H           110.06      21.78       53.13       
H           111.91782   14.9861     53.49213    
H           113.17      15.19       54.74       
H           111.50205   14.99162    55.22483    
C           110.36      20.88       53.63       
C           111.11      18.65       53.67       
C           110.56      19.69       52.87       
C           113.25      20.84       58.94       
C           112.59      19.66       59.12       
S           112.58      21.59       57.55       
H           111.58      18.08       57.84       
H           112.91      18.92       59.86       
C           111.89      19.12       58.03       
C           111.73      20.13       57.08       
C           115.35      21.37       63.24       
C           115.24      21.79       61.93       
N           114.46      20.35       63.44       
C           113.7       20.13       62.2        
C           115.73      22.72       60.96       
O           116.6       23.56       60.88       
O           112.88      19.19       62.1        
C           115.41      23.02       58.47       
C           114.53      19.2        64.3        
H           113.57453   18.95389    64.76326    
H           115.23      19.34       65.09       
H           114.97      18.3        63.84       
H           114.46      23.56       58.13       
H           115.83393   22.38411    57.6928     
H           116.03      23.8        58.67       
N           115.03      22.37       59.69       
C           114.18      21.08       61.28       
C           114.05      21.41       59.95       
C           117.49      22.71       66.11       
C           117.46      23.67       65.18       
S           116.61      21.35       65.71       
H           116.6       24.09       63.26       
H           118.09      24.54       65.2        
C           116.63      23.41       64.09       
C           116.08      22.14       64.27       
C           120.41      22.56       69.42       
C           119.21      21.85       69.43       
C           120.51      23.33       68.26       
N           117.17      21.02       68.8        
N           117.58      20.57       70.0        
N           118.73      21.05       70.45       
C           116.95      19.45       70.67       
H           121.39      23.95       68.16       
H           119.69      23.89       66.29       
H           116.13177   19.00887    70.10079    
H           117.69      18.7        70.82       
H           116.60407   19.69907    71.67319    
C           119.58      23.25       67.19       
C           118.2       21.84       68.41       
C           118.39      22.6        67.24       
C           122.53      22.7        72.84       
C           123.31      23.22       71.9        
S           121.02      22.2        72.15       
H           123.07      23.72       69.71       
H           124.37      23.33       71.99       
C           122.59      23.31       70.63       
C           121.29      22.77       70.57       
C           125.39      22.19       76.78       
C           124.19      22.02       76.17       
N           126.2       22.78       75.77       
C           125.45      23.08       74.58       
C           122.85      21.49       76.42       
O           122.33      20.96       77.39       
O           125.97      23.62       73.69       
C           120.67      22.03       75.39       
C           127.61      23.19       75.73       
H           128.23921   22.54665    75.11493    
H           128.0       23.18       76.74       
H           127.71      24.25       75.5        
H           120.13      21.64       74.53       
H           120.39529   23.06377    75.59965    
H           120.2       21.43       76.16       
N           122.1       21.82       75.2        
C           124.15      22.54       74.86       
C           122.9       22.39       74.22       
C           126.37      21.84       80.6        
C           125.32      21.06       80.35       
S           126.8       22.63       79.12       
H           124.19      20.2        78.59       
H           124.88      20.57       81.13       
C           125.06      20.84       78.97       
C           125.79      21.72       78.1        
C           127.88      23.58       84.35       
C           128.74      23.04       83.31       
C           126.6       23.54       83.96       
N           129.36      21.89       81.49       
N           130.4       22.28       82.16       
N           130.03      23.08       83.19       
C           131.71      21.63       82.09       
H           125.81      23.95       84.7        
H           125.02      23.04       82.53       
H           131.70303   20.85579    81.32276    
H           132.44      22.4        81.82       
H           132.03479   21.30521    83.07849    
C           126.11      22.95       82.76       
C           128.26      22.37       82.18       
C           126.89      22.3        81.83       
C           129.61      24.34       87.77       
C           128.38      24.8        87.83       
S           129.99      23.78       86.15       
H           126.65      24.7        86.53       
H           127.91      25.14       88.81       
C           127.68      24.61       86.59       
C           128.38      24.05       85.57       
C           130.48      22.5        92.01       
C           130.98      23.17       90.93       
N           129.19      22.88       92.16       
C           128.76      23.62       91.02       
C           132.18      23.47       90.2        
O           133.38      23.44       90.54       
O           127.57      23.65       90.66       
C           132.62      24.89       88.25       
C           128.6       23.28       93.45       
H           128.46481   24.36156    93.44288    
H           129.32      23.05       94.26       
H           127.72      22.75       93.68       
H           131.97      25.49       87.63       
H           133.35567   24.38069    87.62751    
H           133.25      25.5        88.91       
N           131.73      24.05       89.0        
C           129.95      23.76       90.17       
C           130.37      24.01       88.93       
C           132.27      19.04       92.78       
C           131.35      19.27       93.8        
S           132.26      20.44       91.75       
H           129.92      20.9        94.44       
H           131.08      18.5        94.55       
C           130.67      20.55       93.77       
C           131.02      21.31       92.66       
C           134.16      15.4        91.19       
C           133.48      15.47       92.41       
C           134.24      16.68       90.65       
N           132.1       16.37       94.03       
N           132.47      15.05       94.23       
N           133.22      14.44       93.3        
C           132.62      14.5        95.52       
H           134.77      16.79       89.77       
H           133.96      18.78       90.65       
H           131.91551   15.03393    96.15775    
H           132.44      13.44       95.53       
H           133.62278   14.6683     95.9127     
C           133.74      17.86       91.17       
C           132.86      16.65       92.93       
C           132.88      17.85       92.28       
C           135.31      12.53       88.68       
C           134.99      11.99       89.89       
S           135.2       14.21       88.9        
H           134.31      12.53       91.91       
H           135.08      10.94       90.06       
C           134.65      12.86       90.91       
C           134.57      14.15       90.5        
C           135.53      8.76        85.58       
C           135.7       10.13       85.87       
N           135.26      8.17        86.71       
C           135.07      9.07        87.79       
C           136.13      11.35       85.24       
O           136.68      11.54       84.19       
O           134.76      8.65        88.92       
C           136.47      13.66       85.8        
C           135.52      6.85        87.03       
H           134.64249   6.27458     86.7351     
H           136.47      6.61        86.56       
H           135.63      6.68        88.05       
H           137.21      14.16       86.48       
H           135.6014    14.308      85.68281    
H           137.04      13.54       84.87       
N           136.16      12.29       86.29       
C           135.48      10.4        87.27       
C           135.55      11.77       87.46       
C           134.47      7.47        82.08       
C           135.55      6.74        82.47       
S           134.12      8.68        83.26       
H           136.99      6.75        84.16       
H           135.93      5.84        81.92       
C           136.14      7.18        83.71       
C           135.46      8.24        84.23       
C           131.45      6.79        78.89       
C           132.45      5.89        79.22       
C           131.61      7.97        79.61       
N           134.27      5.12        80.3        
N           133.66      4.24        79.49       
N           132.61      4.64        78.77       
C           134.26      2.96        79.17       
H           130.88      8.75        79.57       
H           132.63      9.18        81.03       
H           134.63739   2.53369     80.09949    
H           133.44      2.37        78.75       
H           135.05383   3.02379     78.42578    
C           132.59      8.2         80.58       
C           133.49      6.19        80.15       
C           133.58      7.35        80.91       
C           128.15      5.19        77.18       
C           128.09      6.59        77.13       
S           129.72      4.76        77.84       
H           129.3       8.37        77.76       
H           127.23      7.12        76.82       
C           129.21      7.3         77.7        
C           130.18      6.44        78.11       
C           123.8       3.85        75.31       
C           125.06      3.49        75.73       
N           123.76      5.24        75.46       
C           124.96      5.82        76.01       
C           126.07      2.4         75.87       
O           126.03      1.26        75.59       
O           125.09      6.97        76.16       
C           128.4       2.05        76.54       
C           122.6       6.08        75.45       
H           121.84303   5.87484     76.20697    
H           122.9       7.13        75.52       
H           122.14      6.0         74.46       
H           128.99      2.33        77.4        
H           128.91399   2.00942     75.57965    
H           127.95      1.18        76.78       
N           127.27      2.94        76.45       
C           125.82      4.68        76.23       
C           127.09      4.31        76.72       
C           120.65      1.59        73.88       
C           121.81      0.88        74.09       
S           121.13      3.2         74.37       
H           123.85      0.97        75.06       
H           121.85      -0.15       73.92       
C           122.97      1.53        74.67       
C           122.85      2.9         74.77       
C           116.87      0.95        71.59       
C           117.83      -0.05       71.61       
C           117.24      2.07        72.31       
N           119.9       -0.88       72.18       
N           119.09      -1.66       71.51       
N           117.9       -1.27       71.16       
C           119.32      -3.1        71.38       
H           116.47      2.77        72.53       
H           118.57      3.26        73.39       
H           120.14101   -3.33976    72.05569    
H           118.46      -3.63       71.75       
H           119.52574   -3.34121    70.33712    
C           118.42      2.31        72.99       
C           119.08      0.15        72.31       
C           119.41      1.35        73.06       
C           113.3       1.12        69.85       
C           113.84      -0.09       69.65       
S           114.49      2.15        70.67       
H           115.58      -1.29       70.2        
H           113.44      -0.93       69.1        
C           115.08      -0.28       70.27       
C           115.58      0.86        70.92       
C           109.81      1.01        66.6        
C           110.32      1.53        67.77       
N           110.66      -0.05       66.25       
C           111.77      -0.14       67.2        
C           110.07      2.54        68.78       
O           109.15      3.23        69.07       
O           112.63      -1.05       67.09       
C           111.37      3.56        70.63       
C           110.59      -1.02       65.18       
H           111.48082   -0.89274    64.56491    
H           109.81      -0.88       64.39       
H           110.76      -2.03       65.59       
H           112.41      3.81        70.62       
H           111.00088   3.18391     71.58415    
H           110.85      4.43        70.21       
N           111.2       2.5         69.62       
C           111.54      0.93        68.18       
C           112.13      1.58        69.15       
C           106.54      1.42        64.39       
C           106.35      2.07        65.61       
S           108.14      0.92        64.21       
H           107.5       2.28        67.44       
H           105.35      2.4         65.97       
C           107.51      2.01        66.37       
C           108.54      1.28        65.92       
C           103.81      -1.06       61.96       
C           103.28      -0.11       62.99       
C           105.1       -0.89       61.66       
N           103.46      1.31        64.77       
N           102.28      0.75        64.57       
N           102.06      -0.05       63.57       
C           101.32      1.01        65.62       
H           105.65      -1.35       60.83       
H           107.02      0.03        62.18       
H           101.70465   1.7793      66.28957    
H           100.37      1.36        65.27       
H           101.17354   0.07995     66.16924    
C           105.95      -0.04       62.47       
C           104.12      0.68        63.78       
C           105.55      0.76        63.53       
C           102.71      -4.44       60.37       
C           101.59      -3.69       60.5        
S           104.02      -3.59       61.07       
H           101.01      -1.78       61.26       
H           100.61      -4.15       60.28       
C           101.82      -2.44       61.0        
C           103.13      -2.16       61.26       
C           100.75      -8.86       59.32       
C           101.91      -8.12       59.55       
N           99.67       -8.07       59.47       
C           100.11      -6.77       59.84       
C           103.36      -8.12       59.58       
O           104.24      -8.92       59.37       
O           99.25       -6.01       60.15       
C           105.08      -6.61       60.52       
C           98.3        -8.2        59.0        
H           98.10443    -7.75996    58.02214    
H           97.53       -7.97       59.71       
H           98.07       -9.22       58.82       
H           105.08      -5.99       61.43       
H           105.85933   -6.39037    59.79027    
H           105.34      -7.6        60.9        
N           103.78      -6.78       59.97       
C           101.57      -6.72       59.87       
C           102.67      -5.89       60.09       
C           100.42      -12.7       58.14       
C           101.68      -12.55      58.58       
S           99.51       -11.27      58.24       
H           102.89      -10.74      59.23       
H           102.37      -13.36      58.61       
C           101.95      -11.15      58.94       
C           100.76      -10.31      58.96       
C           99.03       -16.57      56.38       
C           98.6        -15.31      55.8        
C           99.86       -16.4       57.47       
N           98.39       -13.13      55.61       
N           97.61       -13.79      54.78       
N           97.69       -15.1       54.77       
C           96.74       -13.05      53.9        
H           100.15      -17.29      57.94       
H           101.03      -15.19      58.81       
H           97.16067    -12.97288   52.89741    
H           96.65       -12.04      54.31       
H           95.70743    -13.39181   53.97121    
C           100.28      -15.14      58.01       
C           98.97       -14.04      56.42       
C           99.88       -13.92      57.54       
H           78.47       14.19       27.63       
H           98.8        -17.48      55.77       
