472

C           88.85       73.51       2.17        
C           89.29       72.62       3.15        
S           87.1        73.53       2.15        
H           88.38       71.18       4.6         
H           90.34       72.31       3.26        
C           88.24       71.98       3.82        
C           87.0        72.43       3.46        
C           92.97       74.48       -0.28       
C           91.54       74.5        -0.2        
N           93.43       73.85       0.85        
C           92.29       73.49       1.75        
C           90.41       74.97       -0.88       
O           90.27       75.67       -1.89       
O           92.54       72.94       2.8         
C           88.01       75.45       -0.26       
C           94.69       73.25       1.16        
H           94.68309    72.2139     0.82154     
H           94.88       73.29       2.24        
H           95.56       73.7        0.75        
H           87.42       75.92       0.63        
H           87.36689    74.84184    -0.89612    
H           88.3        76.38       -0.75       
N           89.3        74.89       0.06        
C           91.11       73.99       1.02        
C           89.7        74.16       1.13        
C           95.6        75.66       -3.15       
C           94.3        75.48       -3.54       
S           95.55       75.27       -1.43       
H           92.37       75.06       -2.8        
H           94.02       75.71       -4.55       
C           93.4        75.18       -2.59       
C           93.83       74.95       -1.36       
C           99.3        76.55       -5.49       
C           99.21       76.45       -4.17       
C           98.06       76.25       -6.06       
N           98.5        76.0        -2.06       
N           99.74       76.34       -2.05       
N           100.14      76.83       -3.22       
C           100.48      76.58       -0.85       
H           97.87       76.24       -7.15       
H           95.99       75.55       -5.83       
H           100.10336   75.91199    -0.0754     
H           101.55      76.32       -1.04       
H           100.41848   77.62587    -0.54923    
C           96.87       75.82       -5.3        
C           98.1        76.15       -3.33       
C           96.81       75.93       -3.9        
C           102.47      76.75       -7.99       
C           102.84      76.88       -6.71       
S           100.71      76.61       -8.01       
H           102.01      76.94       -4.7        
H           103.91      77.04       -6.47       
C           101.81      76.91       -5.77       
C           100.54      76.77       -6.25       
C           106.67      75.32       -9.97       
C           105.37      75.64       -10.07      
N           107.05      75.46       -8.63       
C           105.9       75.89       -7.85       
C           104.38      75.74       -11.11      
O           104.44      75.75       -12.32      
O           106.01      76.07       -6.71       
C           102.2       77.07       -11.13      
C           108.29      75.09       -8.01       
H           108.1658    74.45437    -7.13327    
H           108.96      75.91       -7.79       
H           108.9       74.51       -8.66       
H           101.68      77.79       -10.5       
H           101.4194    76.43263    -11.54536   
H           102.74      77.63       -11.9       
N           103.24      76.34       -10.4       
C           104.78      75.99       -8.82       
C           103.46      76.36       -9.02       
C           108.07      72.95       -12.71      
C           109.06      73.81       -12.38      
S           106.66      73.12       -11.71      
H           109.25      75.52       -10.9       
H           110.07      73.77       -12.79      
C           108.62      74.77       -11.38      
C           107.36      74.54       -10.97      
C           108.24      69.6        -15.65      
C           109.28      70.52       -15.47      
C           107.16      69.88       -14.8       
N           110.47      72.22       -14.58      
N           111.11      71.61       -15.55      
N           110.44      70.71       -16.15      
C           112.47      71.88       -16.05      
H           106.26      69.29       -14.98      
H           106.13      71.18       -13.38      
H           113.03535   72.14522    -15.15661   
H           112.78      70.96       -16.55      
H           112.49862   72.73155    -16.72981   
C           107.06      70.99       -13.89      
C           109.24      71.61       -14.53      
C           108.14      71.82       -13.65      
C           108.79      66.55       -18.1       
C           107.52      66.57       -17.67      
S           109.59      67.98       -17.49      
H           106.22      67.85       -16.42      
H           106.73      65.77       -17.83      
C           107.21      67.71       -16.85      
C           108.22      68.55       -16.56      
C           108.85      63.02       -21.42      
C           109.54      64.03       -20.78      
N           107.58      63.05       -21.01      
C           107.37      63.99       -19.91      
C           110.85      64.6        -20.53      
O           111.92      64.27       -21.02      
O           106.26      63.99       -19.36      
C           111.75      66.49       -19.3       
C           106.68      61.92       -21.09      
H           105.89718   62.00862    -21.84328   
H           107.1       60.98       -21.32      
H           106.26      61.65       -20.15      
H           112.08      66.67       -18.3       
H           111.67793   67.38371    -19.91983   
H           112.62      65.93       -19.71      
N           110.66      65.55       -19.48      
C           108.68      64.67       -19.79      
C           109.33      65.67       -19.1       
C           110.32      60.24       -23.85      
C           111.16      60.53       -22.85      
S           108.85      61.16       -23.58      
H           111.38      62.1        -21.27      
H           112.2       60.27       -22.84      
C           110.78      61.61       -22.06      
C           109.45      61.9        -22.15      
C           110.0       57.13       -26.81      
C           111.14      57.25       -25.96      
C           109.14      58.16       -26.76      
N           112.42      58.19       -24.37      
N           112.94      57.09       -24.85      
N           112.21      56.47       -25.82      
C           113.92      56.3        -24.08      
H           108.26      58.07       -27.36      
H           108.61      60.12       -25.94      
H           114.49723   56.92052    -23.39454   
H           113.39      55.41       -23.62      
H           114.58586   55.79706    -24.78128   
C           109.29      59.3        -25.93      
C           111.33      58.39       -25.18      
C           110.32      59.32       -24.97      
C           109.23      54.47       -29.76      
C           110.23      53.99       -28.94      
S           108.56      55.93       -29.03      
H           111.35      54.68       -27.12      
H           110.82      53.09       -29.26      
C           110.56      54.86       -27.84      
C           109.79      56.01       -27.76      
C           106.98      54.53       -33.99      
C           107.57      53.71       -33.0       
N           106.92      55.78       -33.48      
C           107.53      55.96       -32.18      
C           107.97      52.35       -32.62      
O           107.88      51.28       -33.14      
O           107.73      56.94       -31.59      
C           109.41      51.37       -30.89      
C           106.95      57.0        -34.35      
H           106.16512   57.64218    -33.95042   
H           106.84      56.83       -35.47      
H           107.88      57.56       -34.22      
H           109.56      51.28       -29.79      
H           110.35677   51.25436    -31.41759   
H           108.8       50.49       -31.11      
N           108.66      52.5        -31.37      
C           107.94      54.57       -31.89      
C           108.67      53.84       -30.94      
C           104.71      53.77       -37.08      
C           105.37      52.62       -36.65      
S           105.13      55.0        -36.01      
H           106.84      51.97       -35.11      
H           105.28      51.62       -37.09      
C           106.26      52.75       -35.54      
C           106.28      54.02       -35.11      
C           101.93      54.48       -40.32      
C           102.36      53.22       -39.94      
C           102.48      55.52       -39.62      
N           103.49      51.73       -38.8       
N           102.61      51.13       -39.65      
N           101.87      51.98       -40.33      
C           102.4       49.71       -39.52      
H           102.2       56.55       -39.82      
H           103.38      56.04       -37.85      
H           102.67119   49.39708    -38.51172   
H           101.31      49.53       -39.79      
H           102.9769    49.17583    -40.27495   
C           103.33      55.26       -38.52      
C           103.37      53.03       -39.0       
C           103.89      54.07       -38.21      
C           98.99       55.77       -42.63      
C           98.67       54.54       -42.1       
S           100.54      56.22       -41.92      
H           99.44       53.03       -40.79      
H           97.8        53.96       -42.41      
C           99.68       53.95       -41.27      
C           100.76      54.71       -41.17      
C           95.04       57.02       -44.99      
C           96.31       57.26       -44.7       
N           94.64       56.19       -44.03      
C           95.69       55.63       -43.31      
C           97.44       58.13       -45.07      
O           97.59       59.04       -45.88      
O           95.61       54.7        -42.5       
C           99.69       58.45       -44.18      
C           93.35       55.49       -43.82      
H           93.36399    54.61556    -44.47058   
H           92.55       56.19       -43.98      
H           93.33       55.19       -42.8       
H           100.58      57.85       -44.26      
H           99.61886    59.25385    -43.44729   
H           99.71       58.96       -45.18      
N           98.54       57.61       -44.28      
C           96.85       56.34       -43.75      
C           98.16       56.51       -43.54      
C           92.76       59.55       -47.15      
C           92.26       58.33       -47.14      
S           94.22       59.48       -46.2       
H           92.67       56.26       -46.37      
H           91.46       58.11       -47.8       
C           93.02       57.27       -46.43      
C           94.14       57.76       -45.86      
C           90.85       63.25       -48.56      
C           92.23       63.18       -48.2       
C           90.16       62.08       -48.34      
N           94.24       62.24       -47.7       
N           94.3        63.53       -47.94      
N           93.11       64.16       -48.24      
C           95.56       64.27       -48.08      
H           89.04       62.07       -48.46      
H           90.2        60.02       -47.81      
H           96.3672     63.53869    -48.03861   
H           95.46       64.84       -49.01      
H           95.70544    65.05536    -47.33827   
C           90.8        60.91       -47.89      
C           92.9        61.97       -47.78      
C           92.16       60.78       -47.64      
C           89.28       66.92       -48.68      
C           88.34       66.03       -49.15      
S           90.71       66.07       -48.15      
H           88.3        63.89       -49.54      
H           87.4        66.28       -49.53      
C           88.92       64.74       -49.17      
C           90.14       64.54       -48.67      
C           86.58       70.83       -49.04      
C           87.81       70.31       -48.79      
N           85.69       69.74       -48.89      
C           86.35       68.5        -48.83      
C           89.2        70.7        -48.45      
O           89.73       71.76       -48.22      
O           85.75       67.43       -48.64      
C           91.33       69.44       -48.07      
C           84.3        69.62       -48.99      
H           84.0439     69.37813    -50.02151   
H           83.74       70.53       -48.67      
H           84.02       68.82       -48.38      
H           91.8        68.79       -48.82      
H           91.52359    69.08149    -47.05901   
H           91.62       70.52       -48.16      
N           89.92       69.42       -48.38      
C           87.74       68.87       -48.72      
C           89.01       68.35       -48.55      
C           85.11       74.47       -49.54      
C           86.39       74.52       -49.08      
S           84.69       72.77       -49.72      
H           88.0        73.15       -48.3       
H           86.99       75.44       -49.07      
C           86.95       73.26       -48.71      
C           86.16       72.19       -49.08      
C           82.91       77.93       -51.12      
C           82.29       76.68       -50.92      
C           84.22       77.95       -50.72      
N           82.05       74.49       -50.46      
N           80.97       75.12       -51.0       
N           81.05       76.36       -51.39      
C           79.59       74.46       -50.92      
H           84.76       78.88       -50.83      
H           85.9        76.92       -50.08      
H           79.59       73.44845    -50.51396   
H           78.89       75.11       -50.37      
H           79.13795    74.48187    -51.9116    
C           84.87       76.81       -50.23      
C           82.94       75.5        -50.46      
C           84.31       75.53       -50.1       
C           81.11       81.22       -50.54      
C           80.3        80.51       -51.44      
S           82.56       80.38       -50.29      
H           80.32       78.63       -52.68      
H           79.34       80.91       -51.74      
C           80.85       79.33       -52.03      
C           82.15       79.13       -51.49      
C           80.94       84.89       -47.47      
C           80.76       84.53       -48.79      
N           81.22       83.74       -46.71      
C           81.23       82.56       -47.48      
C           80.61       84.89       -50.24      
O           80.36       86.02       -50.73      
O           81.43       81.52       -46.9       
C           80.61       83.61       -52.41      
C           81.69       83.69       -45.34      
H           80.82205    83.58501    -44.68904   
H           82.22       82.78       -45.12      
H           82.35       84.56       -45.24      
H           79.94       83.04       -52.92      
H           81.58296    83.45026    -52.8747    
H           80.38       84.67       -52.61      
N           80.6        83.57       -50.94      
C           80.92       83.05       -48.86      
C           80.79       82.51       -50.16      
C           81.63       88.3        -45.61      
C           81.62       88.49       -46.97      
S           80.95       86.73       -45.32      
H           81.38       87.28       -48.75      
H           81.99       89.46       -47.33      
C           81.35       87.29       -47.7       
C           81.0        86.22       -46.95      
C           83.68       90.76       -42.65      
C           84.2        90.48       -43.9       
C           82.42       90.12       -42.41      
N           84.29       89.74       -45.96      
N           85.34       90.55       -45.68      
N           85.32       91.1        -44.47      
C           86.19       91.15       -46.71      
H           82.0        90.22       -41.52      
H           80.89       88.68       -43.05      
H           86.11562    90.48804    -47.57278   
H           85.88       92.18       -46.98      
H           87.23776    91.14267    -46.40959   
C           81.81       89.21       -43.32      
C           83.55       89.66       -44.84      
C           82.19       89.1        -44.61      
C           85.08       93.91       -40.64      
C           84.17       93.12       -39.83      
S           85.38       92.96       -42.01      
H           82.88       91.34       -40.0       
H           83.87       93.41       -38.85      
C           83.68       91.93       -40.47      
C           84.23       91.75       -41.66      
C           86.82       97.23       -37.69      
C           86.57       96.78       -39.02      
N           86.47       96.16       -36.85      
C           85.77       95.16       -37.57      
C           86.66       97.14       -40.4       
O           87.33       98.12       -40.95      
O           85.54       94.08       -37.05      
C           85.97       96.19       -42.54      
C           86.34       96.03       -35.39      
H           85.37515    96.43389    -35.08334   
H           86.65       95.0        -34.99      
H           87.18       96.66       -34.92      
H           85.11       95.75       -42.96      
H           86.77072    95.69564    -43.09006   
H           85.92       97.25       -42.79      
N           86.09       96.05       -41.12      
C           85.94       95.48       -38.94      
C           85.73       95.05       -40.23      
C           88.04       101.06      -37.46      
C           88.2        100.44      -36.26      
S           87.46       99.85       -38.57      
H           87.94       98.41       -35.34      
H           88.61       101.04      -35.46      
C           87.76       99.1        -36.18      
C           87.31       98.6        -37.4       
C           89.34       105.01      -39.13      
C           89.77       104.56      -37.87      
C           88.5        104.14      -39.74      
N           89.91       103.23      -36.1       
N           90.58       104.34      -35.98      
N           90.6        105.17      -36.99      
C           91.56       104.44      -34.9       
H           88.09       104.44      -40.73      
H           87.49       102.23      -39.82      
H           91.03933    104.09051   -34.00845   
H           92.41       103.8       -35.23      
H           91.82605    105.49701   -34.89281   
C           88.14       102.86      -39.25      
C           89.37       103.32      -37.32      
C           88.53       102.34      -38.03      
C           90.11       108.23      -41.33      
C           90.41       108.54      -40.0       
S           89.42       106.64      -41.33      
H           90.49       107.52      -38.1       
H           90.86       109.43      -39.6       
C           90.17       107.47      -39.13      
C           89.72       106.33      -39.7       
C           92.53       111.44      -43.99      
C           91.59       110.46      -43.93      
N           92.57       112.06      -42.73      
C           91.87       111.21      -41.76      
C           90.92       109.52      -44.79      
O           91.01       109.38      -45.98      
O           91.85       111.52      -40.62      
C           89.3        107.67      -44.48      
C           92.93       113.38      -42.24      
H           92.03109    113.947     -41.99799   
H           93.45       113.94      -43.03      
H           93.62       113.3       -41.42      
H           88.46       107.46      -43.82      
H           89.67515    106.67197   -44.7065    
H           88.91       108.16      -45.35      
N           90.32       108.6       -43.83      
C           91.29       110.16      -42.61      
C           90.52       108.97      -42.49      
C           93.49       112.69      -47.64      
C           94.52       112.81      -46.77      
S           92.32       111.87      -46.74      
H           94.91       112.79      -44.6       
H           95.51       113.1       -47.13      
C           94.24       112.54      -45.38      
C           93.0        112.02      -45.18      
C           92.65       113.62      -51.97      
C           93.95       113.69      -51.42      
C           91.71       113.25      -51.06      
N           95.53       113.34      -49.88      
N           96.05       113.67      -51.06      
N           95.17       113.73      -52.1       
C           97.38       114.32      -51.04      
H           90.69       113.22      -51.35      
H           91.11       112.62      -49.13      
H           97.75273    114.43469   -50.02215   
H           98.11       113.64      -51.51      
H           97.39425    115.28168   -51.5529    
C           91.99       112.98      -49.65      
C           94.22       113.34      -50.04      
C           93.27       112.97      -49.08      
C           91.03       113.47      -55.62      
C           92.27       114.08      -55.68      
S           90.78       113.22      -53.95      
H           94.02       114.52      -54.37      
H           92.65       114.5       -56.6       
C           92.98       114.19      -54.46      
C           92.31       113.81      -53.34      
C           88.94       113.53      -59.96      
C           88.96       113.0       -58.72      
N           90.16       114.22      -60.15      
C           90.88       114.26      -58.96      
C           88.31       112.16      -57.76      
O           87.37       111.42      -57.91      
O           91.85       114.93      -58.72      
C           88.89       111.21      -55.52      
C           90.93       114.39      -61.38      
H           91.43995    113.46925   -61.66331   
H           91.69       115.14      -61.37      
H           90.25       114.62      -62.18      
H           88.67       111.64      -54.56      
H           89.71848    110.50727   -55.43123   
H           88.06       110.58      -55.75      
N           89.11       112.19      -56.55      
C           90.11       113.54      -58.0       
C           90.11       113.16      -56.68      
C           86.28       113.73      -62.77      
C           85.81       112.81      -61.8       
S           87.7        114.55      -62.25      
H           86.69       111.93      -59.94      
H           84.9        112.19      -61.81      
C           86.76       112.65      -60.76      
C           87.93       113.41      -60.94      
C           84.32       115.2       -66.38      
C           83.82       114.11      -65.68      
C           85.38       115.79      -65.84      
N           83.59       112.73      -63.99      
N           82.56       112.72      -64.83      
N           82.68       113.46      -65.89      
C           81.34       112.02      -64.35      
H           85.84       116.68      -66.3       
H           86.9        115.82      -64.38      
H           81.61651    110.99194   -64.11603   
H           80.54       112.07      -65.06      
H           80.99177    112.55942   -63.46917   
C           86.07       115.26      -64.69      
C           84.43       113.7       -64.48      
C           85.61       114.21      -63.96      
H           86.18       72.39       4.16        
H           83.97       115.5       -67.39      
