472

C           86.91       64.54       57.41       
C           86.95       65.53       56.52       
S           86.39       63.11       56.72       
H           86.36       65.81       54.38       
H           87.13       66.55       56.81       
C           86.47       65.17       55.25       
C           86.26       63.83       55.1        
C           89.42       65.98       61.15       
C           88.36       65.22       60.7        
N           89.91       66.79       60.16       
C           89.24       66.44       58.93       
C           87.28       64.42       61.12       
O           86.87       64.04       62.23       
O           89.71       66.78       57.8        
C           85.78       62.92       59.93       
C           90.69       68.0        60.16       
H           90.06093    68.87646    60.0045     
H           91.47       67.8        59.48       
H           91.18       68.16       61.07       
H           86.01       62.19       59.11       
H           84.74916    63.27125    59.97581    
H           86.05       62.39       60.84       
N           86.64       64.04       59.87       
C           88.22       65.46       59.3        
C           87.29       64.6        58.76       
C           90.82       66.27       64.98       
C           89.47       66.2        64.91       
S           91.36       66.32       63.31       
H           87.8        65.75       63.44       
H           88.86       66.16       65.89       
C           88.87       65.98       63.61       
C           89.73       66.19       62.57       
C           93.77       67.14       68.09       
C           94.12       66.38       66.93       
C           92.42       67.47       68.17       
N           93.78       65.29       65.0        
N           95.02       65.33       65.41       
N           95.31       65.91       66.56       
C           96.11       65.05       64.52       
H           92.12       68.06       68.96       
H           90.52       67.62       67.2        
H           95.71652    64.68463    63.57143    
H           96.73       65.94       64.38       
H           96.73311    64.2908     64.99271    
C           91.49       67.21       67.15       
C           93.18       66.07       65.9        
C           91.84       66.49       66.01       
C           95.73       68.75       71.12       
C           96.48       67.7        70.6        
S           94.31       68.85       70.15       
H           96.41       66.2        68.97       
H           97.39       67.51       71.1        
C           95.92       67.04       69.49       
C           94.7        67.51       69.19       
C           97.96       70.21       75.09       
C           96.97       70.41       74.18       
N           98.35       68.86       74.96       
C           97.88       68.32       73.72       
C           95.94       71.39       73.79       
O           95.54       72.5        74.2        
O           98.11       67.24       73.29       
C           94.52       71.63       71.86       
C           98.93       68.0        76.03       
H           99.80987    67.52072    75.60079    
H           98.2        67.19       76.33       
H           99.35       68.61       76.88       
H           93.69       71.03       71.43       
H           95.09673    72.23419    71.15969    
H           93.99       72.16       72.65       
N           95.45       70.8        72.61       
C           96.94       69.31       73.28       
C           96.02       69.55       72.33       
C           98.7        72.91       77.95       
C           99.83       72.26       77.56       
S           97.33       72.23       77.08       
H           100.45      70.8        75.96       
H           100.8       72.55       77.86       
C           99.66       71.25       76.53       
C           98.33       71.08       76.14       
C           98.01       75.89       81.16       
C           99.31       75.29       80.97       
C           97.02       75.4        80.32       
N           100.83      73.98       79.97       
N           101.34      74.77       80.84       
N           100.53      75.59       81.5        
C           102.71      75.25       80.64       
H           96.01       75.62       80.57       
H           96.36       74.07       78.82       
H           103.2563    74.59018    79.96599    
H           102.57      76.27       80.18       
H           103.19773   75.41025    81.60153    
C           97.22       74.4        79.32       
C           99.5        74.36       79.92       
C           98.46       73.92       79.04       
C           96.38       78.19       83.89       
C           97.61       77.79       84.33       
S           96.23       77.52       82.32       
H           99.31       76.45       83.88       
H           97.96       78.02       85.36       
C           98.39       76.92       83.55       
C           97.77       76.72       82.35       
C           92.81       81.18       85.09       
C           93.72       80.28       85.41       
N           93.21       81.64       83.8        
C           94.29       80.86       83.26       
C           94.01       79.39       86.47       
O           93.45       79.28       87.54       
O           94.91       81.14       82.23       
C           95.35       77.33       86.69       
C           92.87       82.95       83.27       
H           93.68072    83.61005    83.5785     
H           92.85       82.92       82.22       
H           92.0        83.33       83.74       
H           96.35       77.07       86.75       
H           94.7912     76.44882    86.37478    
H           95.11       77.58       87.72       
N           95.02       78.54       85.97       
C           94.59       79.96       84.36       
C           95.44       78.94       84.71       
C           90.48       82.8        87.78       
C           89.87       82.8        86.59       
S           92.09       82.07       87.66       
H           90.33       82.16       84.56       
H           88.92       83.22       86.44       
C           90.67       82.31       85.55       
C           91.84       81.72       85.98       
C           89.36       85.13       91.33       
C           90.48       84.25       91.34       
C           88.61       85.11       90.13       
N           91.9        82.57       90.62       
N           92.26       83.1        91.78       
N           91.5        84.08       92.24       
C           93.18       82.42       92.68       
H           87.8        85.85       90.0        
H           88.39       84.47       88.1        
H           93.5493     81.53936    92.15446    
H           93.96       83.1        92.96       
H           92.62492    82.14626    93.57725    
C           88.97       84.29       89.0        
C           90.76       83.31       90.26       
C           90.06       83.4        89.02       
C           87.97       87.82       93.84       
C           88.87       87.12       94.51       
S           87.97       87.32       92.17       
H           90.29       85.41       94.05       
H           89.08       87.32       95.52       
C           89.52       86.14       93.75       
C           89.07       86.07       92.42       
C           85.29       89.96       97.08       
C           86.19       90.11       96.06       
N           84.89       88.66       97.18       
C           85.74       87.93       96.3        
C           87.01       91.04       95.33       
O           87.08       92.22       95.39       
O           85.83       86.71       96.25       
C           88.68       90.96       93.43       
C           83.62       88.12       97.69       
H           82.98004    87.90436    96.8344     
H           83.13       88.86       98.36       
H           83.84       87.33       98.4        
H           88.38       90.96       92.42       
H           89.67936    90.54183    93.55049    
H           88.67       92.03       93.74       
N           87.71       90.27       94.32       
C           86.47       88.87       95.52       
C           87.36       88.95       94.49       
C           83.25       93.14       98.41       
C           83.68       92.37       99.44       
S           83.73       92.3        97.01       
H           84.78       90.49       99.78       
H           83.61       92.68       100.48      
C           84.4        91.17       99.09       
C           84.59       91.01       97.76       
C           80.1        96.13       98.18       
C           80.93       95.99       99.33       
C           80.43       95.22       97.22       
N           82.51       95.12       100.69      
N           81.7        95.99       101.26      
N           80.83       96.69       100.47      
C           81.68       96.0        102.74      
H           79.85       95.2        96.33       
H           81.49       93.59       96.44       
H           82.69293    95.80027    103.08953   
H           81.35       97.0        103.08      
H           80.98834    95.28011    103.17758   
C           81.51       94.31       97.25       
C           81.97       95.03       99.43       
C           82.33       94.23       98.32       
C           76.58       98.0        97.34       
C           77.12       98.39       98.55       
S           77.65       96.76       96.89       
H           79.04       98.4        99.63       
H           76.7        99.16       99.16       
C           78.43       97.92       98.87       
C           78.86       96.89       98.12       
C           73.37       98.03       93.83       
C           73.84       98.62       95.02       
N           73.95       96.81       93.71       
C           75.03       96.68       94.64       
C           73.68       99.72       95.91       
O           72.94       100.67      95.91       
O           75.84       95.78       94.52       
C           75.05       100.89      97.62       
C           73.4        95.53       93.22       
H           74.04805    95.16179    92.42467    
H           72.33       95.58       92.89       
H           73.39       94.83       94.01       
H           76.12       101.02      97.81       
H           74.59733    100.89      98.61156    
H           74.7        101.73      97.0        
N           74.77       99.65       96.82       
C           74.92       97.88       95.47       
C           75.45       98.47       96.64       
C           70.43       98.76       91.16       
C           70.32       99.64       92.28       
S           71.73       97.63       91.54       
H           71.4        100.17      94.11       
H           69.6        100.44      92.31       
C           71.29       99.45       93.3        
C           72.17       98.38       93.08       
C           68.64       98.85       87.11       
C           68.42       99.86       88.07       
C           69.44       97.83       87.53       
N           68.44       100.87      90.13       
N           67.72       101.55      89.25       
N           67.75       101.03      88.0        
C           67.03       102.81      89.54       
H           69.54       96.93       86.91       
H           70.65       96.96       89.12       
H           66.64962    102.79591   90.56138    
H           67.76       103.6       89.38       
H           66.23718    102.98457   88.81264    
C           69.97       97.75       88.85       
C           68.93       99.81       89.37       
C           69.78       98.75       89.78       
C           68.01       98.51       83.15       
C           67.09       99.36       83.7        
S           68.99       97.96       84.45       
H           66.71       100.34      85.66       
H           66.32       99.91       83.18       
C           67.35       99.7        85.1        
C           68.23       98.89       85.69       
C           70.07       96.22       79.45       
C           68.9        96.72       80.05       
N           71.1        96.6        80.24       
C           70.63       97.26       81.44       
C           67.48       96.7        79.95       
O           66.66       96.41       79.09       
O           71.43       97.56       82.33       
C           65.6        97.19       81.54       
C           72.46       96.86       79.73       
H           73.19111    96.37494    80.37675    
H           72.72       97.91       79.69       
H           72.57       96.5        78.67       
H           65.27       98.12       82.0        
H           65.65767    96.36817    82.2537     
H           65.07       96.79       80.72       
N           66.95       97.41       81.11       
C           69.18       97.37       81.25       
C           68.03       97.93       81.83       
C           70.55       93.42       76.75       
C           69.37       94.04       76.52       
S           71.5        94.33       77.92       
H           68.18       95.68       77.28       
H           68.75       93.64       75.77       
C           69.12       95.16       77.31       
C           70.13       95.39       78.23       
C           72.04       89.46       75.5        
C           70.86       90.07       74.9        
C           72.74       90.34       76.23       
N           69.3        91.63       74.58       
N           69.13       90.54       73.89       
N           69.99       89.58       74.1        
C           67.78       90.2        73.38       
H           73.67       90.07       76.61       
H           72.89       92.08       77.45       
H           67.47408    91.05372    72.77528    
H           67.77       89.26       72.8        
H           67.0451     90.02537    74.16583    
C           72.3        91.63       76.66       
C           70.46       91.45       75.22       
C           71.08       92.14       76.24       
C           73.99       86.04       74.96       
C           72.67       85.89       74.71       
S           74.23       87.66       75.62       
H           70.94       87.13       74.33       
H           72.26       84.99       74.29       
C           71.92       87.05       74.73       
C           72.53       88.09       75.33       
C           74.87       81.57       76.51       
C           75.33       82.8        75.89       
N           73.45       81.81       76.59       
C           73.06       83.03       76.09       
C           76.54       83.45       75.47       
O           77.69       83.09       75.36       
O           71.9        83.35       76.21       
C           77.05       85.62       74.33       
C           72.39       81.14       77.36       
H           72.38278    81.50843    78.38582    
H           71.39       81.17       77.0        
H           72.55       80.06       77.35       
H           76.91       86.59       74.76       
H           76.96308    85.62724    73.2435     
H           78.09       85.34       74.64       
N           76.13       84.68       74.89       
C           74.26       83.68       75.68       
C           74.79       84.9        75.27       
C           76.43       78.24       77.79       
C           77.43       79.19       77.78       
S           74.9        78.92       77.29       
H           77.54       81.23       77.14       
H           78.42       78.96       77.99       
C           76.92       80.38       77.25       
C           75.59       80.47       77.07       
C           75.94       73.99       78.83       
C           77.21       74.63       78.96       
C           74.99       74.79       78.37       
N           78.69       76.36       78.94       
N           79.18       75.26       79.42       
N           78.42       74.14       79.32       
C           80.24       75.22       80.36       
H           73.94       74.49       78.32       
H           74.33       76.8        77.93       
H           80.6624     76.2215     80.44175    
H           79.86       74.86       81.27       
H           81.05552    74.60836    79.97409    
C           75.15       76.19       78.08       
C           77.43       76.0        78.56       
C           76.36       76.81       78.17       
C           74.62       70.37       79.53       
C           76.0        70.38       79.6        
S           74.09       71.99       79.08       
H           77.57       71.77       79.46       
H           76.5        69.47       79.83       
C           76.54       71.64       79.37       
C           75.67       72.65       79.14       
C           73.03       66.02       78.52       
C           72.84       67.23       79.16       
N           74.29       66.12       77.9        
C           74.98       67.36       78.2        
C           71.83       68.02       79.92       
O           70.73       67.65       80.33       
O           76.05       67.73       77.64       
C           71.83       70.18       81.03       
C           75.06       65.17       77.09       
H           75.16184    65.4537     76.04251    
H           76.14       65.22       77.52       
H           74.56       64.21       77.18       
H           71.51       71.17       80.61       
H           72.49308    70.32108    81.88354    
H           70.95       69.71       81.38       
N           72.43       69.25       80.04       
C           73.92       68.07       78.94       
C           73.72       69.31       79.49       
C           71.06       62.7        78.41       
C           70.78       63.3        79.58       
S           72.02       63.7        77.43       
H           71.26       65.24       80.63       
H           70.15       62.81       80.32       
C           71.32       64.57       79.77       
C           72.25       64.8        78.77       
C           69.65       58.95       76.6        
C           69.47       59.22       77.97       
C           70.39       59.93       75.96       
N           69.62       60.37       79.89       
N           69.04       59.15       80.0        
N           68.87       58.51       78.84       
C           68.94       58.35       81.19       
H           70.57       59.88       74.92       
H           71.3        61.83       75.93       
H           69.34999    58.92964    82.01705    
H           67.91       58.0        81.43       
H           69.51527    57.43248    81.06621    
C           70.8        61.17       76.55       
C           69.91       60.45       78.56       
C           70.61       61.44       77.88       
C           68.76       55.96       74.14       
C           68.46       55.61       75.45       
S           69.36       57.56       74.18       
H           68.44       56.43       77.49       
H           68.05       54.64       75.68       
C           68.59       56.61       76.45       
C           69.21       57.75       75.9        
C           69.63       54.89       69.55       
C           69.0        54.56       70.71       
N           70.53       55.9        69.83       
C           70.46       56.19       71.24       
C           67.93       53.66       71.29       
O           67.35       52.64       70.94       
O           71.04       57.11       71.73       
C           66.66       53.69       73.4        
C           71.68       56.32       69.05       
H           72.56088    55.81869    69.45105    
H           71.81       57.34       69.24       
H           71.51       56.18       67.98       
H           66.19       54.53       74.0        
H           66.80687    52.74586    73.92452    
H           65.9        53.59       72.63       
N           67.78       54.15       72.63       
C           69.37       55.38       71.8        
C           68.66       55.17       72.96       
C           68.97       53.56       65.95       
C           67.86       53.4        66.63       
S           70.22       54.28       66.92       
H           67.02       53.94       68.63       
H           67.07       52.75       66.23       
C           67.87       53.9        67.97       
C           69.14       54.47       68.27       
C           69.76       52.12       61.88       
C           68.45       52.15       62.42       
C           70.7        52.37       62.83       
N           66.81       52.73       63.84       
N           66.4        52.07       62.74       
N           67.32       51.74       61.83       
C           65.08       52.48       62.29       
H           71.74       52.33       62.58       
H           71.24       53.04       64.74       
H           64.41295    52.46501    63.15192    
H           65.08       53.51       61.93       
H           64.82725    51.85895    61.43064    
C           70.38       52.76       64.14       
C           68.12       52.71       63.74       
C           69.2        53.11       64.58       
C           71.52       51.09       58.48       
C           70.15       50.89       58.3        
S           71.79       51.82       60.04       
H           68.4        51.01       59.49       
H           69.77       50.34       57.48       
C           69.46       51.12       59.52       
C           70.19       51.7        60.53       
C           76.03       50.16       57.29       
C           74.74       50.14       56.95       
N           76.1        50.83       58.5        
C           74.81       51.25       58.94       
C           73.85       49.76       55.9        
O           73.97       49.31       54.77       
O           74.69       51.9        59.99       
C           71.46       50.23       55.37       
C           77.15       50.73       59.49       
H           77.02476    49.81851    60.07447    
H           77.25       51.59       60.13       
H           78.13       50.67       59.01       
H           70.81       51.13       55.46       
H           70.96241    49.29973    55.09597    
H           71.99       50.53       54.5        
N           72.54       50.09       56.35       
C           73.9        50.81       57.91       
C           72.57       50.69       57.58       
C           79.33       49.02       55.47       
C           78.32       48.28       54.95       
S           78.77       50.03       56.76       
H           76.12       48.38       55.02       
H           78.39       47.58       54.22       
C           77.08       48.77       55.42       
C           77.12       49.64       56.5        
C           83.56       48.05       55.12       
C           83.21       49.3        55.61       
C           82.58       47.17       54.8        
N           81.71       51.01       55.87       
N           82.94       51.33       56.28       
N           83.91       50.44       56.02       
C           83.11       52.66       56.68       
H           82.77       46.11       54.58       
H           80.44       46.83       54.7        
H           82.33341    52.95122    57.38725    
H           83.06       53.24       55.79       
H           84.1024     52.78759    57.1124     
C           81.21       47.6        54.94       
C           81.81       49.69       55.55       
C           80.75       48.83       55.28       
H           86.44       63.37       54.15       
H           84.57       47.84       54.98       
