472

C           20.14       37.76       58.49       
C           21.22       37.67       59.26       
S           20.55       38.68       57.06       
H           23.27       38.34       59.22       
H           21.29       37.13       60.24       
C           22.34       38.28       58.67       
C           22.24       38.91       57.47       
C           16.86       34.86       60.4        
C           17.19       35.74       59.4        
N           17.97       34.58       61.08       
C           19.01       35.54       60.78       
C           16.65       36.38       58.23       
O           15.56       36.35       57.64       
O           20.04       35.58       61.43       
C           17.37       38.4        56.94       
C           18.49       33.32       61.72       
H           19.28477    32.84605    61.14397    
H           17.76       32.55       61.74       
H           18.85       33.47       62.69       
H           17.98       38.58       56.07       
H           17.17567    39.24931    57.59498    
H           16.43       38.11       56.57       
N           17.75       37.27       57.78       
C           18.54       36.19       59.6        
C           18.9        37.07       58.61       
C           13.45       32.87       61.42       
C           13.35       33.49       60.18       
S           15.12       33.24       61.99       
H           14.54       34.85       58.87       
H           12.38       33.55       59.64       
C           14.51       34.25       59.77       
C           15.57       34.19       60.58       
C           10.42       30.11       63.27       
C           11.39       30.82       64.03       
C           10.52       30.54       61.97       
N           13.16       32.09       64.61       
N           12.53       31.63       65.68       
N           11.45       30.96       65.39       
C           13.22       31.38       66.92       
H           9.88        30.09       61.26       
H           11.56       31.62       60.44       
H           14.22276    31.78537    66.78488    
H           12.69       31.83       67.69       
H           13.23422    30.29941    67.06218    
C           11.47       31.48       61.47       
C           12.42       31.72       63.53       
C           12.51       32.0        62.16       
C           7.65        27.44       64.15       
C           8.26        27.83       65.32       
S           8.46        28.19       62.8        
H           10.0        29.08       65.95       
H           7.96        27.36       66.26       
C           9.32        28.71       65.14       
C           9.49        29.17       63.85       
C           5.04        23.46       65.19       
C           5.36        24.49       64.26       
N           5.74        23.71       66.39       
C           6.6         24.88       66.2        
C           4.99        25.03       62.97       
O           4.23        24.81       62.08       
O           7.38        25.2        67.1        
C           5.2         27.33       62.15       
C           5.45        23.19       67.71       
H           4.81315     23.8793     68.26443    
H           6.41        22.95       68.22       
H           4.93        22.19       67.75       
H           5.97        27.86       61.57       
H           4.7487      28.10068    62.77488    
H           4.44        26.91       61.48       
N           5.81        26.24       62.97       
C           6.36        25.36       64.87       
C           6.7         26.37       64.01       
C           2.19        20.76       64.58       
C           2.71        21.23       63.4        
S           3.2         21.42       65.87       
H           4.28        22.49       62.65       
H           2.32        21.04       62.41       
C           3.85        22.06       63.56       
C           4.21        22.37       64.83       
C           -1.42       18.24       64.76       
C           -0.54       18.31       65.86       
C           -0.97       18.96       63.71       
N           1.18        19.15       66.97       
N           0.53        18.34       67.75       
N           -0.58       17.8        67.14       
C           1.1         17.98       69.04       
H           -1.57       19.08       62.83       
H           0.41        20.25       62.7        
H           2.18877     18.01654    69.00346    
H           0.65        18.58       69.81       
H           0.73992     16.97037    69.23769    
C           0.22        19.79       63.64       
C           0.59        19.21       65.84       
C           1.04        19.91       64.69       
C           -5.13       16.95       64.19       
C           -4.68       16.35       65.32       
S           -3.9        18.05       63.51       
H           -2.76       16.35       66.48       
H           -5.24       15.63       65.95       
C           -3.35       16.68       65.59       
C           -2.74       17.57       64.74       
C           -9.65       15.27       63.56       
C           -8.61       16.07       63.07       
N           -9.49       15.09       64.96       
C           -8.13       15.57       65.32       
C           -8.13       16.72       61.87       
O           -8.6        16.95       60.78       
O           -7.67       15.56       66.41       
C           -5.8        17.39       61.14       
C           -10.43      15.14       66.01       
H           -10.36532   14.2704     66.664      
H           -10.25      16.04       66.53       
H           -11.47      15.21       65.62       
H           -4.82       17.08       61.27       
H           -5.85723    18.41296    60.76801    
H           -6.26       16.74       60.43       
N           -6.76       17.14       62.27       
C           -7.57       16.13       64.13       
C           -6.46       16.79       63.56       
C           -12.88      13.57       62.01       
C           -12.43      14.48       61.16       
S           -11.84      13.53       63.38       
H           -10.72      15.9        60.99       
H           -12.87      14.69       60.21       
C           -11.25      15.29       61.64       
C           -10.81      14.88       62.82       
C           -16.96      12.0        62.49       
C           -15.84      11.34       63.09       
C           -16.65      13.08       61.67       
N           -13.69      11.04       63.69       
N           -14.49      10.07       64.12       
N           -15.77      10.25       63.89       
C           -13.97      8.78        64.63       
H           -17.43      13.68       61.19       
H           -15.23      14.56       60.95       
H           -12.8857    8.72475     64.53331    
H           -14.24      8.61        65.66       
H           -14.40228   7.9367      64.09142    
C           -15.33      13.56       61.52       
C           -14.53      11.86       63.04       
C           -14.22      13.03       62.15       
C           -20.86      11.16       62.28       
C           -20.37      10.65       63.47       
S           -19.54      11.79       61.35       
H           -18.31      10.32       64.48       
H           -20.91      10.03       64.15       
C           -18.92      10.78       63.65       
C           -18.4       11.53       62.65       
C           -25.45      9.91        62.09       
C           -24.4       10.55       61.49       
N           -24.89      9.07        63.06       
C           -23.54      9.34        63.34       
C           -24.04      11.4        60.35       
O           -24.63      11.8        59.37       
O           -22.89      8.84        64.2        
C           -22.04      12.72       59.73       
C           -25.43      7.87        63.71       
H           -25.67699   8.13071     64.73914    
H           -24.7       7.06        63.62       
H           -26.32      7.53        63.18       
H           -20.98      12.57       59.51       
H           -22.16995   13.71857    60.14721    
H           -22.65      12.72       58.83       
N           -22.65      11.72       60.59       
C           -23.2       10.3        62.25       
C           -22.18      11.09       61.78       
C           -29.35      10.3        61.72       
C           -28.76      10.88       60.66       
S           -28.2       9.63        62.82       
H           -26.72      11.13       59.92       
H           -29.27      11.47       59.94       
C           -27.4       10.64       60.65       
C           -26.86      9.97        61.73       
C           -33.42      10.88       63.2        
C           -32.96      11.54       62.09       
C           -32.58      9.93        63.77       
N           -31.46      12.16       60.46       
N           -32.6       12.9        60.44       
N           -33.52      12.55       61.32       
C           -32.75      14.03       59.45       
H           -32.94      9.26        64.65       
H           -30.65      9.07        63.74       
H           -31.92606   13.93521    58.74272    
H           -33.71      13.81       59.03       
H           -32.8296    14.96345    60.00717    
C           -31.29      9.73        63.22       
C           -31.67      11.36       61.55       
C           -30.74      10.45       62.13       
C           -36.73      11.41       65.48       
C           -36.65      12.43       64.6        
S           -35.51      10.22       65.05       
H           -35.29      13.13       63.03       
H           -37.34      13.3        64.6        
C           -35.5       12.39       63.78       
C           -34.7       11.24       63.88       
C           -38.49      9.67        69.46       
C           -38.76      10.4        68.32       
N           -37.18      9.15        69.41       
C           -36.57      9.65        68.19       
C           -39.7       11.3        67.61       
O           -40.86      11.63       67.81       
O           -35.44      9.35        67.92       
C           -39.75      12.31       65.36       
C           -36.23      8.74        70.48       
H           -35.6842    9.60361     70.85999    
H           -35.55      7.97        70.17       
H           -36.77      8.41        71.35       
H           -39.34      11.97       64.39       
H           -39.92613   13.38144    65.4554     
H           -40.68      11.78       65.42       
N           -39.0       11.74       66.39       
C           -37.6       10.43       67.51       
C           -37.74      11.19       66.4        
C           -40.8       9.45        72.77       
C           -41.45      9.81        71.63       
S           -39.14      9.23        72.26       
H           -41.27      9.98        69.38       
H           -42.51      9.92        71.62       
C           -40.75      9.81        70.37       
C           -39.46      9.5         70.54       
C           -42.14      8.19        76.77       
C           -42.97      8.9         75.86       
C           -40.88      7.92        76.23       
N           -43.59      9.99        74.02       
N           -44.56      9.97        74.96       
N           -44.22      9.41        76.11       
C           -45.75      10.82       74.83       
H           -40.17      7.39        76.77       
H           -39.49      8.03        74.63       
H           -45.80707   11.34073    73.87413    
H           -46.64      10.18       74.93       
H           -45.83678   11.49256    75.68336    
C           -40.45      8.31        74.96       
C           -42.55      9.33        74.58       
C           -41.23      9.02        74.11       
C           -42.57      6.84        80.46       
C           -43.79      7.35        80.07       
S           -41.52      6.92        79.11       
H           -44.75      8.42        78.46       
H           -44.68      7.22        80.71       
C           -43.79      8.01        78.82       
C           -42.57      7.86        78.12       
C           -43.35      5.45        85.07       
C           -42.51      5.49        83.97       
N           -44.39      6.29        84.84       
C           -44.38      6.64        83.45       
C           -41.2       5.12        83.49       
O           -40.24      4.61        84.01       
O           -45.26      7.29        82.99       
C           -39.91      5.31        81.33       
C           -45.15      7.12        85.76       
H           -44.81255   8.14703     85.62062    
H           -45.02      6.76        86.71       
H           -46.22      7.07        85.48       
H           -39.55      6.19        80.83       
H           -39.97926   4.42342     80.6997     
H           -39.08      5.08        81.95       
N           -41.09      5.6         82.1        
C           -43.14      6.23        82.92       
C           -42.27      6.29        81.8        
C           -43.55      3.04        88.35       
C           -42.3       2.9         87.74       
S           -44.41      4.26        87.39       
H           -41.18      3.66        86.0        
H           -41.66      2.13        88.07       
C           -42.05      3.79        86.68       
C           -43.1       4.64        86.27       
C           -46.07      1.02        91.34       
C           -44.74      0.53        90.9        
C           -46.37      2.23        90.75       
N           -42.85      0.35        89.67       
N           -43.01      -0.71       90.45       
N           -44.14      -0.67       91.23       
C           -42.1       -1.91       90.35       
H           -47.29      2.68        90.98       
H           -45.84      3.85        89.39       
H           -41.13427   -1.58574    89.9623     
H           -41.99      -2.25       91.34       
H           -42.51517   -2.70516    89.73076    
C           -45.48      2.91        89.84       
C           -43.93      1.17        89.88       
C           -44.3       2.4         89.32       
C           -47.81      -0.88       94.23       
C           -48.75      -0.21       93.53       
S           -46.23      -0.58       93.61       
H           -48.86      1.16        91.77       
H           -49.77      -0.36       93.68       
C           -48.26      0.61        92.44       
C           -46.89      0.44        92.36       
C           -50.91      -2.84       97.34       
C           -49.65      -2.51       97.0        
N           -51.65      -2.73       96.16       
C           -50.86      -2.31       95.03       
C           -48.28      -2.47       97.54       
O           -47.82      -2.59       98.68       
O           -51.34      -2.04       93.96       
C           -45.99      -1.67       96.7        
C           -53.02      -3.11       95.85       
H           -53.12494   -4.19437    95.81502    
H           -53.73      -2.63       96.5        
H           -53.32      -2.76       94.93       
H           -45.62      -0.67       96.48       
H           -45.2942    -2.33878    96.19335    
H           -45.81      -1.82       97.76       
N           -47.46      -1.89       96.49       
C           -49.53      -2.15       95.61       
C           -48.25      -1.75       95.33       
C           -51.48      -4.33       100.93      
C           -52.64      -4.2        100.28      
S           -50.25      -3.65       99.95       
H           -53.39      -3.39       98.4        
H           -53.59      -4.49       100.76      
C           -52.54      -3.66       99.01       
C           -51.22      -3.32       98.61       
C           -50.8       -6.39       104.71      
C           -49.83      -5.51       104.08      
C           -51.98      -6.4        104.05      
N           -48.86      -4.16       102.66      
N           -48.1       -4.41       103.7       
N           -48.59      -5.23       104.52      
C           -46.77      -3.96       103.79      
H           -52.84      -6.94       104.45      
H           -53.23      -5.74       102.32      
H           -46.49006   -3.48889    102.84777   
H           -46.74      -3.19       104.58      
H           -46.07016   -4.70883    104.16092   
C           -52.26      -5.65       102.86      
C           -50.03      -4.8        102.9       
C           -51.28      -4.92       102.21      
C           -49.44      -8.88       107.48      
C           -50.77      -8.72       107.55      
S           -48.98      -7.96       106.07      
H           -52.51      -7.67       106.55      
H           -51.34      -9.38       108.22      
C           -51.38      -7.78       106.69      
C           -50.51      -7.23       105.8       
C           -48.45      -12.91      109.95      
C           -47.99      -11.81      109.25      
N           -49.8       -12.7       110.27      
C           -50.18      -11.44      109.77      
C           -46.8       -11.18      108.8       
O           -45.64      -11.39      108.99      
O           -51.29      -10.99      109.97      
C           -46.29      -9.05       107.58      
C           -50.69      -13.5       111.11      
H           -51.30089   -14.08214   110.42005   
H           -50.17      -14.04      111.94      
H           -51.51      -12.91      111.52      
H           -46.59      -8.01       107.66      
H           -46.01609   -9.37307    106.57566   
H           -45.38      -9.02       108.16      
N           -47.26      -9.96       108.17      
C           -49.04      -10.87      109.0       
C           -48.64      -9.87       108.21      
C           -45.66      -15.77      110.36      
C           -46.87      -16.2       110.89      
S           -45.95      -14.19      109.76      
H           -48.91      -15.58      111.1       
H           -46.9       -17.18      111.36      
C           -47.95      -15.29      110.73      
C           -47.62      -14.06      110.21      
C           -41.89      -17.67      109.38      
C           -43.0       -18.4       109.96      
C           -42.16      -16.33      109.34      
N           -45.08      -18.66      110.83      
N           -44.39      -19.78      110.76      
N           -43.16      -19.71      110.26      
C           -44.95      -21.1       110.99      
H           -41.41      -15.71      108.93      
H           -43.33      -14.57      109.53      
H           -46.02217   -21.09299   110.79379   
H           -44.4       -21.85      110.34      
H           -44.81868   -21.4356    112.0187    
C           -43.29      -15.65      109.72      
C           -44.19      -17.74      110.33      
C           -44.37      -16.37      110.1       
C           -38.32      -19.18      108.57      
C           -38.8       -18.61      107.46      
S           -39.56      -19.11      109.81      
H           -40.5       -17.26      106.88      
H           -38.22      -18.54      106.53      
C           -40.04      -17.92      107.6       
C           -40.68      -18.26      108.8       
C           -34.31      -21.22      106.77      
C           -35.08      -20.92      107.86      
N           -35.12      -20.98      105.64      
C           -36.39      -20.42      106.0       
C           -34.99      -20.9       109.29      
O           -34.05      -21.22      110.12      
O           -37.34      -20.27      105.17      
C           -36.51      -20.1       111.06      
C           -34.78      -21.07      104.27      
H           -34.72357   -20.06128   103.86087   
H           -35.47      -21.68      103.73      
H           -33.77      -21.53      104.12      
H           -37.49      -20.55      111.28      
H           -36.59942   -19.07168   111.41023   
H           -35.62      -20.54      111.56      
N           -36.27      -20.31      109.64      
C           -36.35      -20.34      107.48      
C           -37.07      -19.96      108.56      
C           -30.55      -21.94      106.63      
C           -31.13      -22.79      107.51      
S           -31.78      -21.03      105.85      
H           -33.03      -23.25      108.49      
H           -30.69      -23.52      108.18      
C           -32.48      -22.6       107.73      
C           -33.02      -21.86      106.73      
C           -26.22      -21.15      106.19      
C           -27.18      -20.41      105.48      
C           -26.76      -22.15      106.95      
N           -29.2       -19.75      104.96      
N           -28.26      -18.97      104.42      
N           -27.02      -19.3       104.65      
C           -28.66      -17.68      103.88      
H           -26.06      -22.65      107.54      
H           -28.54      -23.15      107.82      
H           -29.7483    -17.63053   103.91533   
H           -28.36      -16.88      104.55      
H           -28.29043   -17.59304   102.85826   
C           -28.19      -22.41      107.09      
C           -28.54      -20.74      105.54      
C           -29.14      -21.69      106.41      
C           -22.39      -20.46      107.03      
C           -22.97      -19.33      106.54      
S           -23.63      -21.7       106.87      
H           -24.82      -18.64      105.5       
H           -22.44      -18.39      106.5       
C           -24.3       -19.49      106.0       
C           -24.88      -20.68      106.27      
C           -19.3       -19.31      110.52      
C           -19.86      -20.25      109.73      
N           -19.68      -18.07      110.01      
C           -20.53      -18.24      108.85      
C           -19.97      -21.67      109.61      
O           -19.62      -22.61      110.34      
O           -20.98      -17.32      108.14      
C           -20.89      -23.08      107.81      
C           -19.49      -16.75      110.56      
H           -20.42815   -16.44217   111.02175   
H           -19.13      -16.1       109.79      
H           -18.62      -16.76      111.28      
H           -21.08      -22.96      106.81      
H           -21.52604   -23.84033   108.26327   
H           -19.84      -23.36      107.9       
N           -20.93      -21.86      108.54      
C           -20.71      -19.65      108.68      
C           -21.36      -20.65      108.0       
C           -17.84      -19.68      114.16      
C           -18.71      -20.72      113.92      
S           -17.64      -18.76      112.71      
H           -19.85      -21.46      112.16      
H           -18.9       -21.48      114.67      
C           -19.29      -20.69      112.62      
C           -18.89      -19.59      111.89      
C           -15.71      -18.71      117.85      
C           -16.82      -19.57      117.8       
C           -15.33      -18.15      116.61      
N           -18.55      -20.61      117.01      
N           -18.32      -20.93      118.31      
N           -17.31      -20.3       118.84      
C           -19.38      -21.28      119.21      
H           -14.35      -17.69      116.5       
H           -15.79      -18.08      114.5       
H           -19.4217    -22.3642    119.31425   
H           -20.22      -20.93      118.63      
H           -19.22407   -20.75549   120.1527    
C           -16.15      -18.45      115.43      
C           -17.54      -19.83      116.63      
C           -17.17      -19.27      115.42      
H           23.05       38.81       56.69       
H           -15.68      -18.05      118.71      
