472

C           3.49        33.25       79.13       
C           2.54        32.3        79.4        
S           4.95        32.56       78.68       
H           2.49        30.16       79.38       
H           1.56        32.53       79.7        
C           3.04        31.02       79.27       
C           4.35        30.91       78.92       
C           0.77        37.24       78.43       
C           2.01        36.64       78.58       
N           -0.11       36.16       78.39       
C           0.52        34.92       78.76       
C           3.38        36.95       78.7        
O           4.0         38.0        78.85       
O           -0.02       33.82       78.76       
C           5.23        35.9        79.8        
C           -1.45       36.08       77.95       
H           -1.47124    35.4641     77.05093    
H           -1.8        36.95       77.54       
H           -2.14       35.74       78.72       
H           5.92        35.07       79.78       
H           5.02317     36.14819    80.84102    
H           5.71        36.75       79.29       
N           4.0         35.74       79.13       
C           1.89        35.27       78.89       
C           3.14        34.67       79.02       
C           -0.75       40.83       78.06       
C           0.61        40.88       77.92       
S           -1.18       39.26       78.62       
H           2.25        39.39       77.55       
H           1.18        41.8        77.63       
C           1.23        39.6        77.85       
C           0.34        38.58       78.15       
C           -4.05       43.56       78.85       
C           -2.71       44.03       78.81       
C           -4.2        42.34       78.26       
N           -0.42       43.95       78.53       
N           -0.96       45.16       78.87       
N           -2.28       45.25       79.06       
C           -0.15       46.39       79.02       
H           -5.2        41.93       78.16       
H           -3.28       40.44       77.5        
H           0.90903     46.1324     79.03431    
H           -0.41       46.99       78.08       
H           -0.55265    46.84298    79.92597    
C           -3.11       41.51       77.84       
C           -1.57       43.26       78.39       
C           -1.81       41.88       78.08       
C           -7.21       44.69       80.92       
C           -6.43       45.81       80.56       
S           -6.5        43.38       80.0        
H           -4.43       46.34       79.59       
H           -6.71       46.75       80.94       
C           -5.22       45.58       79.74       
C           -5.18       44.27       79.38       
C           -10.24      46.0        84.46       
C           -9.8        45.02       83.58       
N           -9.71       47.2        84.06       
C           -8.74       46.98       83.02       
C           -9.96       43.63       83.31       
O           -10.64      42.74       83.87       
O           -8.04       47.82       82.5        
C           -8.59       41.97       82.16       
C           -9.8        48.6        84.41       
H           -8.90729    48.86297    84.97746    
H           -10.66      48.63       85.01       
H           -9.9        49.25       83.55       
H           -7.52       41.9        82.01       
H           -9.16731    41.48311    81.37403    
H           -8.77       41.37       83.06       
N           -8.97       43.38       82.28       
C           -8.85       45.57       82.65       
C           -8.3        44.59       81.88       
C           -12.68      46.0        87.55       
C           -13.01      45.04       86.68       
S           -11.31      46.82       86.85       
H           -12.36      44.15       84.81       
H           -13.68      44.28       86.99       
C           -12.31      44.98       85.49       
C           -11.33      45.89       85.37       
C           -14.22      46.74       91.62       
C           -13.06      47.31       91.08       
C           -14.72      45.77       90.76       
N           -11.42      47.76       89.65       
N           -11.34      48.28       90.8        
N           -12.36      48.25       91.64       
C           -10.08      48.81       91.34       
H           -15.67      45.33       91.01       
H           -14.86      44.65       88.93       
H           -9.20877    48.56917    90.73085    
H           -10.19      49.89       91.48       
H           -9.98096    48.43507    92.35868    
C           -14.24      45.44       89.46       
C           -12.57      47.02       89.8        
C           -13.16      46.11       88.91       
C           -16.66      47.29       94.65       
C           -15.88      48.45       94.49       
S           -16.1       46.05       93.52       
H           -14.34      49.13       93.16       
H           -15.93      49.26       95.15       
C           -14.96      48.37       93.46       
C           -15.02      47.22       92.77       
C           -19.46      48.55       98.46       
C           -19.13      47.69       97.44       
N           -18.44      49.48       98.46       
C           -17.42      49.15       97.43       
C           -19.61      46.49       96.76       
O           -20.55      45.7        97.03       
O           -16.46      49.89       97.44       
C           -19.36      45.84       94.47       
C           -18.08      50.56       99.36       
H           -17.61733   50.13292    100.24974   
H           -17.45      51.35       98.91       
H           -18.98      51.1        99.62       
H           -18.65      45.37       93.8        
H           -19.81603   46.59069    93.82455    
H           -20.28      45.26       94.77       
N           -18.71      46.36       95.64       
C           -17.91      48.06       96.71       
C           -17.63      47.18       95.73       
C           -22.45      49.03       101.02      
C           -22.77      48.08       100.1       
S           -20.8       49.59       100.72      
H           -21.98      47.2        98.3        
H           -23.71      47.65       100.1       
C           -21.76      47.82       99.15       
C           -20.61      48.57       99.29       
C           -24.3       50.05       104.87      
C           -25.03      49.34       103.9       
C           -22.96      50.21       104.6       
N           -25.46      48.46       101.91      
N           -26.51      48.64       102.69      
N           -26.4       49.09       103.89      
C           -27.82      48.7        102.04      
H           -22.29      50.71       105.31      
H           -21.24      50.15       103.34      
H           -27.79856   48.20692    101.06814   
H           -28.56      48.18       102.7       
H           -28.10947   49.7476     101.95729   
C           -22.35      49.99       103.37      
C           -24.46      49.16       102.61      
C           -23.09      49.42       102.29      
C           -24.61      50.89       108.72      
C           -25.52      49.97       108.39      
S           -23.87      51.4        107.21      
H           -26.2       48.73       106.69      
H           -26.14      49.52       109.2       
C           -25.58      49.6        107.04      
C           -24.72      50.27       106.22      
C           -24.76      51.04       113.57      
C           -24.39      51.63       112.4       
N           -25.61      49.95       113.23      
C           -25.67      49.8        111.81      
C           -23.65      52.71       111.86      
O           -23.08      53.59       112.39      
O           -26.33      48.92       111.28      
C           -22.7       53.2        109.77      
C           -26.61      49.31       114.06      
H           -27.58217   49.73268    113.80639   
H           -26.29      49.43       115.13      
H           -26.53      48.24       113.78      
H           -23.07      53.26       108.74      
H           -21.69112   52.78792    109.79131   
H           -22.65      54.12       110.25      
N           -23.63      52.45       110.49      
C           -24.88      50.89       111.25      
C           -24.4       51.38       110.05      
C           -23.49      51.72       117.28      
C           -23.66      52.94       116.56      
S           -24.11      50.45       116.28      
H           -24.06      53.47       114.49      
H           -23.32      53.91       116.96      
C           -24.01      52.69       115.2       
C           -24.4       51.46       114.9       
C           -22.62      51.01       121.51      
C           -22.31      52.16       120.86      
C           -23.24      50.09       120.69      
N           -22.11      53.71       119.26      
N           -21.53      54.04       120.4       
N           -21.64      53.18       121.33      
C           -20.89      55.32       120.66      
H           -23.59      49.13       120.99      
H           -23.78      49.46       118.68      
H           -20.5498    55.6602     119.68193   
H           -21.51      56.05       121.15      
H           -20.08731   55.14952    121.37745   
C           -23.49      50.32       119.3       
C           -22.59      52.46       119.5       
C           -23.16      51.52       118.68      
C           -22.9       49.71       125.2       
C           -22.01      50.76       125.2       
S           -23.5       49.44       123.62      
H           -21.26      52.29       123.69      
H           -21.65      51.17       126.12      
C           -21.81      51.36       123.94      
C           -22.46      50.66       122.92      
C           -25.05      46.74       128.31      
C           -24.64      48.0        128.02      
N           -24.53      45.85       127.4       
C           -23.92      46.56       126.32      
C           -24.6       49.39       128.47      
O           -25.11      49.9        129.48      
O           -23.57      46.05       125.26      
C           -24.46      51.49       127.15      
C           -23.85      44.6        127.75      
H           -22.83729   44.88168    128.03839   
H           -23.78      43.85       126.98      
H           -24.08      44.07       128.62      
H           -24.76      51.48       126.11      
H           -23.72574   52.24485    127.43135   
H           -25.36      51.5        127.69      
N           -23.96      50.12       127.44      
C           -23.96      47.95       126.77      
C           -23.57      49.24       126.43      
C           -26.33      46.28       132.02      
C           -26.95      45.39       131.22      
S           -25.21      47.14       131.05      
H           -27.04      44.82       129.18      
H           -27.74      44.73       131.6       
C           -26.66      45.5        129.87      
C           -25.72      46.47       129.56      
C           -26.65      47.15       136.31      
C           -27.66      46.46       135.67      
C           -25.63      47.54       135.52      
N           -28.82      45.77       133.92      
N           -29.4       45.43       135.03      
N           -28.79      45.79       136.15      
C           -30.77      45.06       135.04      
H           -24.79      48.08       135.89      
H           -24.55      47.53       133.7       
H           -31.17704   45.33596    134.06724   
H           -30.79      43.95       135.21      
H           -31.28973   45.50247    135.88983   
C           -25.52      47.23       134.11      
C           -27.63      46.26       134.25      
C           -26.53      46.6        133.41      
C           -27.67      48.25       140.08      
C           -26.31      48.29       139.95      
S           -28.32      47.8        138.53      
H           -24.71      47.68       138.53      
H           -25.69      48.54       140.72      
C           -25.83      47.85       138.69      
C           -26.79      47.51       137.78      
C           -28.59      50.71       144.13      
C           -28.99      49.92       143.07      
N           -27.23      50.94       143.86      
C           -26.78      50.18       142.74      
C           -30.2       49.27       142.51      
O           -31.36      49.16       142.87      
O           -25.66      50.29       142.34      
C           -30.62      47.63       140.67      
C           -26.31      51.99       144.4       
H           -26.19758   52.79096    143.6693    
H           -25.41      51.63       144.68      
H           -26.76      52.55       145.27      
H           -30.15      46.84       140.25      
H           -31.18289   48.22069    139.94727   
H           -31.31      47.2        141.42      
N           -29.71      48.58       141.4       
C           -27.93      49.51       142.24      
C           -28.42      48.79       141.17      
C           -31.26      51.95       146.71      
C           -30.03      51.98       147.29      
S           -31.12      51.52       145.06      
H           -27.91      51.5        146.67      
H           -29.89      52.28       148.34      
C           -28.99      51.58       146.39      
C           -29.45      51.19       145.19      
C           -34.76      53.06       149.26      
C           -34.99      52.26       148.09      
C           -33.47      53.48       149.41      
N           -34.39      51.29       146.07      
N           -35.67      51.21       146.33      
N           -36.12      51.86       147.45      
C           -36.56      50.62       145.4       
H           -33.26      54.05       150.32      
H           -31.53      53.57       148.75      
H           -36.02984   49.90102    144.77543   
H           -37.45      50.16       145.9       
H           -37.04202   51.37446    144.77827   
C           -32.42      53.07       148.56      
C           -33.86      51.91       147.17      
C           -32.5       52.3        147.43      
C           -37.99      53.7        151.53      
C           -36.85      54.14       152.17      
S           -37.55      53.11       150.03      
H           -34.64      53.93       151.95      
H           -36.81      54.51       153.18      
C           -35.64      53.9        151.44      
C           -35.79      53.42       150.19      
C           -41.07      54.85       155.06      
C           -40.88      54.47       153.77      
N           -39.81      54.88       155.67      
C           -38.79      54.26       154.81      
C           -41.61      54.19       152.53      
O           -42.78      54.27       152.18      
O           -37.67      53.94       155.16      
C           -40.96      53.44       150.25      
C           -39.3       55.48       156.87      
H           -38.83108   56.43204    156.62133   
H           -39.96      55.6        157.66      
H           -38.53      54.86       157.27      
H           -40.3       52.68       149.82      
H           -40.76505   54.31031    149.62338   
H           -42.05      53.18       150.27      
N           -40.53      53.74       151.62      
C           -39.49      54.14       153.54      
C           -39.27      53.75       152.24      
C           -44.07      56.11       157.29      
C           -44.53      55.99       155.99      
S           -42.45      55.48       157.39      
H           -43.75      55.46       154.04      
H           -45.59      56.11       155.82      
C           -43.51      55.53       155.12      
C           -42.3       55.29       155.69      
C           -46.43      57.17       160.96      
C           -44.98      56.99       160.99      
C           -46.98      57.12       159.72      
N           -42.94      56.63       160.09      
N           -42.91      56.97       161.36      
N           -44.06      57.05       162.02      
C           -41.68      56.66       162.08      
H           -48.09      57.31       159.6       
H           -46.71      56.81       157.61      
H           -40.85395   56.94014    161.42634   
H           -41.71      57.29       162.96      
H           -41.68      55.59338    162.30455   
C           -46.18      56.84       158.51      
C           -44.24      56.71       159.78      
C           -44.83      56.51       158.49      
C           -48.93      57.85       164.0       
C           -47.62      58.14       164.39      
S           -48.88      57.35       162.31      
H           -45.64      58.15       163.49      
H           -47.38      58.35       165.39      
C           -46.67      57.99       163.35      
C           -47.17      57.51       162.16      
C           -51.34      57.29       168.17      
C           -51.42      57.3        166.8       
N           -50.01      57.42       168.58      
C           -49.14      57.48       167.44      
C           -52.25      57.1        165.62      
O           -53.41      56.92       165.45      
O           -47.95      57.58       167.61      
C           -52.09      57.8        163.22      
C           -49.43      57.52       169.94      
H           -49.33569   58.57919    170.17941   
H           -50.08      57.17       170.76      
H           -48.42      56.99       169.96      
H           -51.52      57.59       162.38      
H           -52.38934   58.8477     163.24851   
H           -52.89      57.1        163.13      
N           -51.4       57.52       164.5       
C           -50.09      57.55       166.31      
C           -50.07      57.67       164.9       
C           -54.21      56.04       170.7       
C           -54.75      56.62       169.62      
S           -52.52      56.31       170.56      
H           -54.16      57.53       167.71      
H           -55.75      56.56       169.44      
C           -53.82      57.16       168.65      
C           -52.55      57.09       169.0       
C           -56.37      54.27       174.12      
C           -54.96      54.37       174.15      
C           -56.94      54.63       172.92      
N           -52.9       54.93       173.35      
N           -52.85      54.54       174.64      
N           -54.02      54.19       175.19      
C           -51.57      54.71       175.32      
H           -58.02      54.65       172.78      
H           -56.86      55.51       171.03      
H           -50.74943   54.57324    174.61568   
H           -51.58      55.67       175.73      
H           -51.53468   53.96114    176.11124   
C           -56.24      55.23       171.85      
C           -54.26      54.88       173.02      
C           -54.89      55.36       171.83      
C           -59.2       53.24       176.75      
C           -57.98      53.34       177.44      
S           -58.89      53.42       175.03      
H           -55.91      53.82       177.02      
H           -57.84      53.05       178.46      
C           -56.87      53.68       176.55      
C           -57.17      53.85       175.24      
C           -62.09      51.33       180.07      
C           -61.98      51.96       178.89      
N           -61.0       51.71       180.73      
C           -59.98      52.34       179.99      
C           -62.76      52.27       177.7       
O           -63.92      52.22       177.37      
O           -58.87      52.55       180.37      
C           -62.19      53.28       175.45      
C           -60.89      51.88       182.14      
H           -60.90487   52.92852    182.43745   
H           -59.93      51.54       182.53      
H           -61.69      51.37       182.73      
H           -61.62      52.68       174.75      
H           -62.08417   54.34538    175.24539   
H           -63.16      52.89       175.36      
N           -61.74      52.85       176.83      
C           -60.61      52.48       178.71      
C           -60.5       52.9        177.38      
C           -65.33      49.38       181.1       
C           -64.27      48.81       181.7       
S           -64.87      50.71       180.1       
H           -62.06      49.18       181.72      
H           -64.27      47.93       182.24      
C           -63.04      49.49       181.39      
C           -63.23      50.54       180.57      
C           -69.81      48.45       181.24      
C           -68.75      47.46       181.33      
C           -69.18      49.63       180.99      
N           -66.7       46.58       181.52      
N           -67.68      45.71       181.76      
N           -68.92      46.18       181.75      
C           -67.37      44.32       181.95      
H           -69.76      50.56       180.9       
H           -67.49      50.93       180.86      
H           -66.29187   44.19616    181.84801   
H           -67.7       44.02       182.98      
H           -67.8302    43.73755    181.15183   
C           -67.77      49.86       180.89      
C           -67.34      47.7        181.22      
C           -66.8       48.97       181.0       
C           -73.49      48.62       182.65      
C           -73.31      47.39       181.99      
S           -72.15      49.65       182.34      
H           -71.65      46.44       180.86      
H           -74.13      46.66       181.89      
C           -71.98      47.28       181.45      
C           -71.21      48.37       181.65      
C           -78.19      48.78       183.28      
C           -76.95      49.2        183.57      
N           -78.02      47.9        182.23      
C           -76.65      47.7        181.9       
C           -76.26      50.17       184.44      
O           -76.69      50.84       185.38      
O           -76.37      47.07       180.87      
C           -74.01      50.98       184.81      
C           -78.9       47.07       181.46      
H           -79.00989   46.10299    181.95083   
H           -78.61      46.98       180.42      
H           -79.98      47.5        181.52      
H           -73.48      51.61       184.07      
H           -73.38582   50.42517    185.51047   
H           -74.69      51.73       185.24      
N           -74.9       50.05       184.12      
C           -75.94      48.58       182.82      
C           -74.72      49.09       183.15      
C           -81.23      51.06       184.11      
C           -81.64      49.77       184.03      
S           -79.5       51.11       184.05      
H           -80.76      47.74       183.58      
H           -82.63      49.49       184.08      
C           -80.61      48.81       183.75      
C           -79.4       49.38       183.72      
C           -83.94      54.64       183.61      
C           -84.3       53.38       184.3       
C           -82.57      54.67       183.29      
N           -84.17      51.23       185.04      
N           -85.4       51.74       185.02      
N           -85.51      53.03       184.64      
C           -86.5       51.06       185.67      
H           -82.13      55.53       182.8       
H           -80.66      53.55       183.14      
H           -87.09996   51.79566    186.20568   
H           -86.12      50.31       186.4       
H           -87.1187    50.47008    184.99375   
C           -81.72      53.5        183.57      
C           -83.44      52.28       184.48      
C           -82.06      52.3        184.12      
H           4.75        30.05       78.31       
H           -84.66      54.88       182.87      
