472

C           11.02       55.76       74.35       
C           10.24       56.79       74.69       
S           12.45       55.77       75.35       
H           10.23       58.38       76.28       
H           9.19        56.95       74.38       
C           10.73       57.51       75.84       
C           12.08       57.31       76.11       
C           11.61       51.51       71.84       
C           10.84       52.61       72.2        
N           12.75       51.63       72.59       
C           12.73       52.82       73.44       
C           9.54        53.21       71.91       
O           8.7         52.94       71.1        
O           13.71       53.16       74.13       
C           8.64        55.58       72.09       
C           14.0        50.87       72.31       
H           14.55098    51.41401    71.54281    
H           13.86       49.81       71.98       
H           14.68       50.89       73.14       
H           9.11        56.55       72.18       
H           7.63734     55.53126    72.51474    
H           8.6         55.39       71.0        
N           9.55        54.5        72.6        
C           11.4        53.49       73.16       
C           10.66       54.6        73.44       
C           10.91       48.53       69.31       
C           9.75        49.09       69.72       
S           12.22       49.44       69.95       
H           9.11        50.67       71.19       
H           8.76        48.95       69.22       
C           9.94        50.14       70.71       
C           11.23       50.38       71.03       
C           11.43       45.69       65.92       
C           12.51       46.02       66.9        
C           10.19       46.3        66.31       
N           13.57       47.04       68.61       
N           14.33       46.21       67.86       
N           13.81       45.67       66.81       
C           15.75       45.87       68.16       
H           9.26        46.23       65.67       
H           9.05        47.59       67.64       
H           15.96035    46.36783    69.10658    
H           15.85       44.79       68.22       
H           16.3354     46.19522    67.29997    
C           10.04       47.08       67.48       
C           12.33       46.9        68.0        
C           11.08       47.52       68.26       
C           11.18       43.65       62.6        
C           12.51       43.63       62.95       
S           10.27       44.6        63.69       
H           13.8        44.46       64.63       
H           13.27       43.06       62.36       
C           12.8        44.37       64.15       
C           11.64       44.88       64.68       
C           11.33       42.57       57.94       
C           10.61       42.71       59.15       
N           12.67       42.72       58.3        
C           12.85       43.07       59.68       
C           9.25        42.66       59.59       
O           8.16        42.34       59.12       
O           13.89       43.14       60.22       
C           8.15        42.92       61.8        
C           13.83       42.78       57.41       
H           14.09689    43.82648    57.26251    
H           13.6        42.45       56.38       
H           14.65       42.2        57.76       
H           8.05        43.96       62.29       
H           8.0745      42.1375     62.55504    
H           7.23        42.77       61.19       
N           9.36        42.92       61.0        
C           11.5        43.07       60.2        
C           10.71       43.23       61.32       
C           10.3        41.98       54.18       
C           9.31        41.5        54.99       
S           11.43       42.88       55.14       
H           8.87        41.4        57.21       
H           8.52        40.83       54.59       
C           9.54        41.72       56.4        
C           10.76       42.32       56.65       
C           10.47       42.4        49.82       
C           9.34        41.86       50.5        
C           11.51       42.68       50.66       
N           8.05        41.18       52.28       
N           7.48        41.13       51.11       
N           8.12        41.52       50.05       
C           6.08        40.68       51.04       
H           12.42       43.05       50.25       
H           12.35       42.97       52.65       
H           5.84965     40.30104    52.0357     
H           5.41        41.44       50.76       
H           6.00982     39.87992    50.30308    
C           11.47       42.59       52.11       
C           9.31        41.61       51.89       
C           10.41       41.96       52.76       
C           11.42       43.13       46.05       
C           10.14       42.78       46.05       
S           12.05       43.1        47.68       
H           8.55        42.29       47.54       
H           9.49        42.8        45.19       
C           9.62        42.43       47.35       
C           10.59       42.48       48.34       
C           12.06       44.76       41.49       
C           12.49       44.5        42.72       
N           10.7        44.42       41.54       
C           10.34       43.8        42.79       
C           13.66       44.58       43.5        
O           14.83       44.87       43.23       
O           9.17        43.38       42.93       
C           14.2        44.81       45.84       
C           9.8         44.29       40.42       
H           9.99752     43.36587    39.87681    
H           8.72        44.35       40.76       
H           9.88        45.14       39.75       
H           14.61       44.1        46.64       
H           13.75506    45.70718    46.27035    
H           15.03       45.15       45.21       
N           13.35       44.19       44.88       
C           11.48       44.03       43.65       
C           12.02       43.78       44.93       
C           13.79       47.64       39.39       
C           13.05       46.83       38.55       
S           13.7        46.9        41.01       
H           11.95       44.95       38.62       
H           13.07       46.98       37.49       
C           12.48       45.71       39.18       
C           12.63       45.64       40.55       
C           15.52       51.7        38.98       
C           14.54       51.23       38.09       
C           16.02       50.73       39.88       
N           13.23       49.66       37.06       
N           13.26       50.75       36.49       
N           13.93       51.76       36.96       
C           13.07       50.84       35.06       
H           16.79       50.94       40.6        
H           15.85       48.74       40.76       
H           12.42516    50.03754    34.70176    
H           12.61       51.81       34.83       
H           14.01934    50.87516    34.52556    
C           15.43       49.44       40.06       
C           14.05       49.86       38.19       
C           14.37       48.96       39.22       
C           17.17       55.2        38.12       
C           17.8        54.66       39.25       
S           15.87       54.08       37.77       
H           17.76       52.72       40.42       
H           18.72       55.08       39.71       
C           17.28       53.4        39.66       
C           16.18       53.0        38.99       
C           20.23       58.65       36.99       
C           18.97       58.18       36.94       
N           21.06       57.57       37.26       
C           20.27       56.47       37.6        
C           17.57       58.66       36.82       
O           17.04       59.72       36.52       
O           20.71       55.41       38.02       
C           15.29       57.65       37.17       
C           22.37       57.26       36.84       
H           22.29702    56.59585    35.97879    
H           22.9        56.74       37.65       
H           23.1        58.06       36.58       
H           14.75       56.85       37.78       
H           14.82634    57.7142     36.18562    
H           15.06       58.52       37.83       
N           16.77       57.46       37.08       
C           18.89       56.83       37.36       
C           17.58       56.39       37.46       
C           21.93       62.17       37.53       
C           20.55       62.37       37.33       
S           22.32       60.45       37.41       
H           18.77       61.15       36.91       
H           20.05       63.39       37.14       
C           19.87       61.16       37.16       
C           20.67       60.04       37.13       
C           24.89       65.25       38.54       
C           25.23       64.12       37.82       
C           23.57       65.27       38.96       
N           25.0        62.14       36.8        
N           26.26       62.54       36.86       
N           26.48       63.73       37.44       
C           27.17       61.91       35.94       
H           23.31       66.02       39.64       
H           21.75       64.5        39.0        
H           26.81162    60.91217    35.68703    
H           27.36       62.44       35.05       
H           28.1559     61.85406    36.40149    
C           22.7        64.28       38.61       
C           24.31       63.07       37.52       
C           22.97       63.17       37.89       
C           26.27       68.81       39.04       
C           27.41       68.03       38.9        
S           24.8        67.83       39.06       
H           27.81       65.86       38.59       
H           28.4        68.52       38.79       
C           27.08       66.65       38.81       
C           25.75       66.41       38.84       
C           27.82       73.15       37.38       
C           26.84       72.33       38.1        
N           28.85       72.26       36.98       
C           28.54       70.97       37.45       
C           25.65       72.49       38.9        
O           25.04       73.46       39.31       
O           29.17       70.06       37.03       
C           24.43       70.88       40.4        
C           30.21       72.68       36.77       
H           30.82648    72.34374    37.60365    
H           30.4        73.75       36.88       
H           30.67       72.25       35.85       
H           24.94       70.13       41.06       
H           23.43941    70.53818    40.10003    
H           24.48       71.8        40.96       
N           25.37       71.07       39.28       
C           27.23       70.95       38.14       
C           26.31       70.19       38.81       
C           27.58       76.57       35.44       
C           26.47       76.42       36.26       
S           28.73       75.32       35.76       
H           25.62       74.82       37.55       
H           25.63       77.12       36.23       
C           26.51       75.2        36.99       
C           27.65       74.5        36.87       
C           28.67       79.84       32.79       
C           27.37       79.87       33.35       
C           29.42       78.7        32.98       
N           25.67       78.84       34.35       
N           25.38       80.04       33.86       
N           26.32       80.74       33.23       
C           24.04       80.55       33.85       
H           30.22       78.59       32.33       
H           29.78       76.82       33.99       
H           23.33666    79.71878    33.89973    
H           23.85       81.07       34.82       
H           23.84682    81.22969    33.02006    
C           29.09       77.68       33.86       
C           26.97       78.73       34.07       
C           27.89       77.67       34.45       
C           30.83       82.5        30.86       
C           29.52       82.77       30.54       
S           30.88       81.15       32.01       
H           27.48       81.82       30.9        
H           29.22       83.62       29.98       
C           28.59       81.87       31.12       
C           29.17       80.94       31.94       
C           35.52       83.62       30.53       
C           34.24       84.01       30.51       
N           35.53       82.19       30.65       
C           34.17       81.71       30.71       
C           33.43       85.2        30.35       
O           33.67       86.38       30.16       
O           33.87       80.52       30.66       
C           31.11       85.81       30.59       
C           36.61       81.26       30.91       
H           36.5886     81.05314    31.97998    
H           37.63       81.51       30.64       
H           36.34       80.41       30.32       
H           30.3        85.41       31.21       
H           30.68813    86.11937    29.63375    
H           31.53       86.65       31.15       
N           32.07       84.74       30.52       
C           33.36       82.9        30.65       
C           32.04       83.3        30.57       
C           38.88       85.48       30.08       
C           38.0        86.29       30.78       
S           38.22       83.87       29.94       
H           35.78       86.14       31.32       
H           38.24       87.33       30.99       
C           36.68       85.7        30.9        
C           36.68       84.34       30.62       
C           42.97       86.79       28.83       
C           42.53       85.37       28.83       
C           41.95       87.65       29.2        
N           41.12       83.63       28.92       
N           42.31       83.33       28.42       
N           43.17       84.34       28.3        
C           42.58       81.92       28.4        
H           42.08       88.75       29.3        
H           40.0        87.96       29.97       
H           42.06977    81.35947    29.18331    
H           42.33       81.52       27.41       
H           43.65108    81.78433    28.54995    
C           40.64       87.18       29.65       
C           41.21       84.96       29.13       
C           40.23       85.85       29.67       
C           46.52       88.56       28.78       
C           46.6        87.34       28.19       
S           44.91       88.71       29.39       
H           45.26       85.68       27.46       
H           47.58       87.08       27.76       
C           45.39       86.64       27.95       
C           44.35       87.27       28.56       
C           48.34       92.65       30.34       
C           48.5        91.32       30.11       
N           46.99       92.92       30.16       
C           46.28       91.78       29.47       
C           49.5        90.2        30.2        
O           50.67       90.07       30.64       
O           45.18       91.83       29.04       
C           49.38       87.79       29.82       
C           46.28       94.17       30.51       
H           46.26573    94.94778    29.74649    
H           45.24       94.04       30.68       
H           46.67       94.48       31.47       
H           49.28       87.13       28.95       
H           48.96472    87.34749    30.72544    
H           50.5        87.96       29.9        
N           48.78       89.13       29.62       
C           47.32       90.76       29.58       
C           47.55       89.47       29.04       
C           50.82       95.59       31.07       
C           51.36       94.44       31.6        
S           49.18       95.31       30.67       
H           50.85       92.25       31.68       
H           52.37       94.45       31.98       
C           50.49       93.26       31.52       
C           49.35       93.57       30.92       
C           52.34       99.53       29.86       
C           53.22       98.64       30.51       
C           51.04       99.16       29.97       
N           53.91       96.74       31.6        
N           54.82       97.72       31.55       
N           54.5        98.83       30.82       
C           56.08       97.73       32.34       
H           50.27       99.82       29.54       
H           49.53       97.73       30.16       
H           56.16517    96.82149    32.93621    
H           56.87       97.76       31.6        
H           56.02933    98.59141    33.00596    
C           50.64       97.89       30.28       
C           52.8        97.35       31.06       
C           51.44       96.89       30.8        
C           52.58       102.75      27.51       
C           53.79       102.43      27.99       
S           51.43       101.61      28.18       
H           54.79       101.06      29.52       
H           54.68       103.02      27.59       
C           53.85       101.38      28.97       
C           52.62       100.8       29.19       
C           50.29       104.87      23.99       
C           51.24       105.0       25.03       
N           49.71       103.59      24.1        
C           50.26       102.96      25.22       
C           52.29       105.84      25.59       
O           52.83       106.87      25.22       
O           50.08       101.74      25.35       
C           53.5        105.83      27.72       
C           49.33       102.77      22.91       
H           48.31042    102.41315   23.05565    
H           49.41       103.32      21.98       
H           49.94       101.91      22.75       
H           54.19       105.28      28.22       
H           52.7694     106.17721   28.4506     
H           53.9        106.77      27.34       
N           52.89       105.05      26.59       
C           51.26       103.78      25.77       
C           52.28       103.79      26.67       
C           48.89       107.63      21.69       
C           50.21       107.78      21.79       
S           48.48       106.19      22.46       
H           51.78       107.09      23.06       
H           50.75       108.73      21.51       
C           50.82       106.89      22.63       
C           50.02       105.87      23.01       
C           45.83       110.31      19.96       
C           47.13       110.18      19.42       
C           45.57       109.35      20.86       
N           49.25       109.57      19.19       
N           48.84       110.39      18.21       
N           47.6        110.75      18.29       
C           49.83       111.18      17.45       
H           44.6        109.23      21.28       
H           46.31       107.87      22.18       
H           50.84905    110.97769   17.77969    
H           49.71       110.96      16.38       
H           49.51296    112.20317   17.65175    
C           46.64       108.54      21.39       
C           48.22       109.4       20.01       
C           47.96       108.51      20.99       
C           43.09       112.48      18.08       
C           42.61       112.04      19.26       
S           44.75       111.97      17.96       
H           43.35       110.85      21.01       
H           41.59       112.17      19.45       
C           43.54       111.34      20.04       
C           44.79       111.22      19.51       
C           39.4        114.84      16.08       
C           40.71       114.43      16.01       
N           38.96       114.54      17.37       
C           39.9        113.79      18.08       
C           41.82       114.19      15.07       
O           41.88       114.49      13.92       
O           39.68       113.23      19.22       
C           43.94       113.04      15.0        
C           38.0        115.3       18.21       
H           38.49994    115.88948   18.97856    
H           37.25       114.57      18.76       
H           37.52       116.02      17.62       
H           44.55       112.2       15.4        
H           44.65139    113.82964   14.75813    
H           43.55       112.56      14.1        
N           42.84       113.51      15.78       
C           41.11       113.78      17.23       
C           42.42       113.26      17.1        
C           37.08       117.09      13.71       
C           38.35       117.09      13.27       
S           36.98       116.12      15.1        
H           40.38       116.33      13.95       
H           38.67       117.65      12.41       
C           39.31       116.37      14.05       
C           38.69       115.69      15.12       
C           33.61       118.98      11.71       
C           34.96       119.38      11.38       
C           33.46       117.91      12.63       
N           37.15       119.42      11.69       
N           36.74       120.17      10.7        
N           35.47       120.37      10.61       
C           37.65       120.83      9.75        
H           32.44       117.59      12.92       
H           34.29       116.55      14.04       
H           38.52281    120.20656   9.55604     
H           37.13       121.04      8.85        
H           37.89803    121.844     10.06368    
C           34.57       117.27      13.29       
C           36.07       118.75      12.04       
C           35.86       117.75      13.09       
C           30.43       119.58      9.44        
C           31.3        120.67      9.27        
S           31.22       118.48      10.6        
H           33.19       121.4       10.1        
H           31.15       121.42      8.55        
C           32.48       120.59      10.06       
C           32.51       119.54      10.92       
C           27.4        120.44      5.85        
C           27.76       119.66      6.92        
N           28.56       121.09      5.46        
C           29.56       120.93      6.43        
C           27.32       118.57      7.73        
O           26.28       117.94      7.79        
O           30.61       121.63      6.37        
C           28.08       117.28      9.69        
C           29.0        121.2       4.1         
H           29.76727    120.46926   3.84424     
H           29.43       122.21      3.91        
H           28.22       121.02      3.34        
H           28.42       117.5       10.71       
H           28.55602    116.40009   9.25726     
H           27.0        117.09      9.82        
N           28.27       118.4       8.77        
C           29.03       120.01      7.39        
C           29.32       119.28      8.54        
C           24.19       120.71      3.65        
C           24.14       119.54      4.26        
S           25.6        121.63      3.99        
H           25.52       118.38      5.58        
H           23.36       118.83      4.13        
C           25.28       119.33      5.1         
C           26.24       120.4       5.04        
C           21.7        122.51      0.47        
C           21.74       121.1       0.75        
C           22.45       123.25      1.36        
N           22.46       119.11      1.6         
N           21.55       118.99      0.64        
N           21.02       120.1       0.13        
C           21.11       117.72      0.06        
H           22.46       124.31      1.26        
H           23.52       123.28      3.16        
H           21.85532    116.99618   0.38966     
H           20.97       117.9       -1.0        
H           20.11448    117.46401   0.42265     
C           23.17       122.61      2.44        
C           22.56       120.44      1.78        
C           23.38       121.27      2.61        
H           12.84       58.07       76.45       
H           21.77       122.77      -0.54       
