472

C           28.0        11.72       41.64       
C           27.57       13.03       41.42       
S           27.22       11.2        43.13       
H           26.11       14.43       42.08       
H           27.74       13.6        40.51       
C           26.6        13.5        42.25       
C           26.27       12.65       43.28       
C           30.83       8.12        40.68       
C           30.26       9.29        40.21       
N           30.59       7.99        42.07       
C           29.82       9.15        42.46       
C           30.05       10.12       39.02       
O           30.52       10.05       37.9        
O           29.76       9.42        43.66       
C           28.36       11.76       38.35       
C           31.2        7.25        43.17       
H           30.42507    6.62575     43.61487    
H           31.57       8.02        43.86       
H           31.97       6.47        42.85       
H           28.21       12.81       38.58       
H           27.37869    11.28752    38.30639    
H           28.91       11.72       37.45       
N           29.1        11.11       39.41       
C           29.57       9.95        41.26       
C           28.96       11.07       40.82       
C           33.01       6.07        38.3        
C           32.65       5.25        39.31       
S           32.13       7.51        38.35       
H           31.56       5.44        41.19       
H           33.01       4.24        39.43       
C           31.88       5.94        40.3        
C           31.52       7.19        39.92       
C           35.26       5.49        34.64       
C           34.55       4.38        35.2        
C           35.13       6.75        35.17       
N           33.27       3.4         36.72       
N           33.64       2.56        35.74       
N           34.42       3.07        34.79       
C           33.36       1.13        35.88       
H           35.47       7.68        34.72       
H           34.32       7.9         36.79       
H           32.5876     0.99884     36.63782    
H           33.11       0.76        34.83       
H           34.20325    0.49411     36.14956    
C           34.35       6.9         36.35       
C           33.8        4.58        36.44       
C           33.71       5.83        37.01       
C           36.36       4.93        30.9        
C           37.21       5.78        31.56       
S           35.13       4.42        32.02       
H           37.54       6.6         33.59       
H           38.02       6.27        31.05       
C           36.95       5.96        32.94       
C           35.88       5.28        33.36       
C           38.47       3.67        26.73       
C           37.33       3.68        27.54       
N           39.44       4.28        27.44       
C           38.97       4.79        28.7        
C           35.91       3.42        27.58       
O           35.12       2.97        26.75       
O           39.75       5.37        29.44       
C           34.05       4.07        28.91       
C           40.85       4.62        27.14       
H           41.47347    3.7718      27.42273    
H           41.17       5.46        27.68       
H           41.02       4.89        26.12       
H           33.84       4.93        29.54       
H           33.42166    3.22728     29.1983     
H           33.78       4.4         27.93       
N           35.43       3.79        28.86       
C           37.59       4.36        28.75       
C           36.48       4.39        29.51       
C           38.94       2.31        23.05       
C           37.92       1.6         23.71       
S           39.72       3.37        24.22       
H           36.92       1.62        25.71       
H           37.4        0.76        23.36       
C           37.76       2.0         25.1        
C           38.64       2.95        25.5        
C           40.41       2.55        18.85       
C           39.08       2.08        19.2        
C           41.13       2.88        19.95       
N           37.36       1.45        20.51       
N           37.1        1.4         19.23       
N           38.07       1.79        18.36       
C           35.9        0.88        18.69       
H           42.13       3.27        19.79       
H           41.17       3.4         22.0        
H           35.33202    0.46111     19.52068    
H           35.34       1.64        18.12       
H           36.23441    0.07437     18.03637    
C           40.6        2.86        21.27       
C           38.63       1.96        20.55       
C           39.4        2.25        21.68       
C           41.6        1.77        15.09       
C           42.55       2.51        15.68       
S           40.34       1.42        16.27       
H           42.97       3.41        17.66       
H           43.41       2.86        15.18       
C           42.23       2.88        17.07       
C           40.97       2.47        17.53       
C           43.32       1.64        10.54       
C           42.39       1.27        11.56       
N           44.21       2.44        11.24       
C           43.84       2.68        12.66       
C           41.18       0.45        11.69       
O           40.61       -0.22       10.88       
O           44.5        3.45        13.32       
C           40.1        -0.48       13.75       
C           45.5        2.97        10.79       
H           46.22319    2.1797      10.9913     
H           45.38       3.27        9.83        
H           45.76       3.86        11.26       
H           39.27       -0.02       14.28       
H           40.66708    -1.13484    14.41159    
H           39.7        -1.16       12.97       
N           40.92       0.51        13.1        
C           42.63       1.88        12.83       
C           41.69       1.48        13.72       
C           43.35       -0.23       7.1         
C           43.66       1.11        6.91        
S           42.84       -0.39       8.73        
H           43.84       2.9         8.2         
H           43.73       1.53        5.91        
C           43.77       1.83        8.11        
C           43.47       1.13        9.22        
C           42.03       -3.21       4.19        
C           41.75       -1.85       4.01        
C           42.76       -3.5        5.3         
N           41.84       0.28        4.47        
N           41.23       -0.0        3.3         
N           41.21       -1.25       2.97        
C           40.37       0.95        2.62        
H           42.89       -4.51       5.63        
H           43.81       -2.82       7.0         
H           40.2559     1.81291     3.2761      
H           40.66       1.21        1.58        
H           39.38631    0.48548     2.55169     
C           43.09       -2.54       6.28        
C           42.17       -0.95       5.0         
C           42.87       -1.19       6.19        
C           41.14       -6.54       2.45        
C           40.09       -5.68       2.29        
S           42.24       -5.82       3.5         
H           39.57       -3.53       2.84        
H           39.2        -5.93       1.75        
C           40.26       -4.36       2.83        
C           41.47       -4.28       3.48        
C           39.33       -10.85      1.16        
C           40.41       -10.04      1.26        
N           38.26       -10.19      1.76        
C           38.62       -8.82       1.97        
C           41.83       -9.85       0.96        
O           42.58       -10.5       0.22        
O           37.82       -7.99       2.39        
C           43.58       -8.42       1.95        
C           37.11       -10.78      2.42        
H           37.04102    -10.54548   3.48223     
H           37.09       -11.83      2.48        
H           36.21       -10.57      1.92        
H           43.67       -7.98       2.94        
H           44.18225    -7.88305    1.21714     
H           43.92       -9.47       1.98        
N           42.19       -8.6        1.6         
C           40.06       -8.82       1.88        
C           41.1        -7.96       2.02        
C           39.73       -14.75      0.4         
C           38.43       -14.31      0.26        
S           40.71       -13.35      0.67        
H           37.23       -12.54      0.39        
H           37.64       -14.99      0.06        
C           38.25       -12.89      0.43        
C           39.37       -12.23      0.74        
C           41.47       -18.82      0.56        
C           40.12       -18.6       0.8         
C           42.17       -17.66      0.31        
N           38.28       -17.28      1.12        
N           38.03       -18.56      1.36        
N           39.05       -19.39      1.22        
C           36.79       -19.07      1.89        
H           43.24       -17.7       0.07        
H           42.29       -15.61      -0.16       
H           35.95512    -18.66671   1.31691     
H           36.75       -20.14      1.85        
H           36.74154    -18.76537   2.93544     
C           41.63       -16.38      0.18        
C           39.57       -17.22      0.72        
C           40.32       -16.05      0.4         
C           43.2        -22.27      1.59        
C           43.63       -21.93      0.31        
S           41.97       -21.17      2.07        
H           43.5        -20.26      -1.08       
H           44.4        -22.42      -0.21       
C           43.17       -20.71      -0.13       
C           42.15       -20.14      0.65        
C           43.17       -25.15      5.5         
C           43.53       -24.93      4.18        
N           42.71       -23.93      5.9         
C           42.42       -23.02      4.83        
C           44.22       -25.59      3.09        
O           44.61       -26.71      2.98        
O           41.93       -21.93      5.05        
C           44.6        -25.12      0.68        
C           42.59       -23.51      7.29        
H           41.55218    -23.46091   7.61958     
H           42.93       -22.54      7.34        
H           43.19       -24.12      7.94        
H           45.24       -24.38      0.18        
H           43.7675     -25.43748   0.0521      
H           45.31       -25.94      0.86        
N           44.15       -24.66      1.98        
C           43.07       -23.63      3.64        
C           43.49       -23.46      2.32        
C           42.61       -28.43      7.67        
C           43.68       -28.58      6.87        
S           41.99       -26.8       7.47        
H           44.71       -27.45      5.31        
H           44.1        -29.48      6.86        
C           43.87       -27.51      5.96        
C           43.22       -26.33      6.27        
C           40.65       -30.88      10.81       
C           42.08       -30.92      10.61       
C           40.01       -29.96      9.97        
N           44.07       -30.34      9.83        
N           44.14       -31.23      10.8        
N           42.97       -31.66      11.29       
C           45.41       -31.57      11.42       
H           38.98       -29.74      10.18       
H           40.11       -28.45      8.44        
H           46.20296    -31.3335    10.71051    
H           45.42       -30.92      12.32       
H           45.43155    -32.58283   11.82226    
C           40.67       -29.18      8.96        
C           42.74       -30.15      9.63        
C           42.05       -29.26      8.72        
C           39.06       -32.91      13.92       
C           38.06       -32.44      13.1        
S           40.54       -32.67      13.08       
H           37.91       -31.11      11.39       
H           36.96       -32.66      13.32       
C           38.55       -31.59      12.07       
C           39.93       -31.64      11.86       
C           36.76       -35.9       16.93       
C           37.84       -35.06      16.7        
N           35.92       -35.7       15.84       
C           36.53       -34.96      14.8        
C           39.01       -34.53      17.31       
O           39.56       -34.72      18.38       
O           35.95       -34.66      13.72       
C           40.88       -33.09      16.5        
C           34.6        -36.24      15.55       
H           34.69281    -37.16811   14.986      
H           34.01       -35.59      14.97       
H           33.95       -36.38      16.45       
H           40.95       -32.15      15.98       
H           41.70262    -33.70872   16.14142    
H           40.95       -33.0       17.65       
N           39.62       -33.75      16.22       
C           37.73       -34.52      15.36       
C           38.84       -33.78      15.08       
C           35.64       -38.23      19.86       
C           36.2        -37.1       20.33       
S           35.54       -38.11      18.12       
H           37.26       -35.35      19.43       
H           36.38       -37.05      21.43       
C           36.62       -36.2       19.35       
C           36.37       -36.61      18.1        
C           33.74       -41.69      21.76       
C           34.1        -40.57      22.51       
C           33.99       -41.66      20.43       
N           35.09       -38.61      22.96       
N           34.63       -39.18      24.07       
N           34.04       -40.38      23.87       
C           34.94       -38.82      25.41       
H           33.56       -42.48      19.88       
H           34.8        -40.62      18.74       
H           35.89214    -38.28942   25.41       
H           34.12       -38.34      25.86       
H           35.06888    -39.72929   25.9971     
C           34.68       -40.53      19.81       
C           34.76       -39.42      21.97       
C           35.07       -39.35      20.52       
C           30.55       -43.66      22.89       
C           31.31       -44.42      22.03       
S           31.46       -42.2       23.18       
H           33.26       -44.49      20.97       
H           30.88       -45.32      21.68       
C           32.62       -43.98      21.7        
C           32.88       -42.72      22.25       
C           26.07       -45.05      22.22       
C           27.09       -44.68      23.11       
N           26.68       -45.13      20.95       
C           28.1        -44.84      21.03       
C           27.34       -44.32      24.46       
O           26.59       -44.19      25.4        
O           28.72       -44.76      20.05       
C           29.34       -43.63      25.71       
C           26.11       -45.05      19.63       
H           25.76258    -44.0361    19.43147    
H           26.81       -45.18      18.83       
H           25.26       -45.72      19.5        
H           29.62       -42.63      25.74       
H           30.21455    -44.27134   25.81932    
H           28.61       -43.83      26.48       
N           28.71       -43.85      24.43       
C           28.28       -44.43      22.38       
C           29.23       -43.94      23.2        
C           22.37       -46.47      22.37       
C           22.81       -46.08      23.65       
S           23.76       -46.44      21.29       
H           24.66       -45.24      24.53       
H           22.18       -46.06      24.52       
C           24.12       -45.55      23.63       
C           24.71       -45.46      22.39       
C           18.37       -48.01      21.14       
C           19.31       -47.44      20.2        
C           18.91       -48.09      22.45       
N           21.27       -46.54      19.36       
N           20.4        -46.9       18.4        
N           19.23       -47.45      18.85       
C           20.52       -46.53      17.07       
H           18.36       -48.49      23.31       
H           20.53       -47.5       23.74       
H           21.33455    -45.81462   16.95667    
H           20.73       -47.49      16.56       
H           19.59905    -46.06606   16.71685    
C           20.2        -47.52      22.69       
C           20.65       -46.97      20.52       
C           21.09       -46.93      21.82       
C           15.41       -50.44      20.61       
C           15.59       -49.76      19.44       
S           16.57       -49.8       21.71       
H           16.93       -48.19      18.48       
H           15.0        -50.07      18.63       
C           16.59       -48.69      19.4        
C           17.11       -48.58      20.68       
C           13.22       -53.6       23.27       
C           13.66       -53.3       22.04       
N           13.38       -52.45      24.06       
C           14.0        -51.38      23.29       
C           13.96       -53.85      20.68       
O           13.66       -54.92      20.16       
O           14.05       -50.17      23.61       
C           14.55       -52.76      18.41       
C           13.22       -52.23      25.51       
H           13.98382    -52.79394   26.04539    
H           13.33       -51.15      25.76       
H           12.27       -52.49      25.91       
H           15.56       -52.61      17.96       
H           13.78676    -52.15517   17.92037    
H           14.19       -53.76      18.15       
N           14.44       -52.67      19.9        
C           14.13       -51.94      21.97       
C           14.66       -51.6       20.74       
C           11.06       -56.54      24.81       
C           11.27       -56.82      23.49       
S           11.75       -55.03      25.19       
H           12.31       -55.86      21.8        
H           10.88       -57.66      22.92       
C           12.06       -55.79      22.84       
C           12.5        -54.78      23.64       
C           8.49        -57.77      28.04       
C           8.38        -58.36      26.78       
C           9.65        -57.1       28.21       
N           8.79        -58.75      24.65       
N           7.75        -59.44      25.13       
N           7.44        -59.14      26.39       
C           6.89        -60.08      24.22       
H           9.9         -56.83      29.23       
H           11.4        -56.17      27.53       
H           7.39443     -60.58443   23.39586    
H           6.42        -60.84      24.88       
H           6.13498     -59.38849   23.84602    
C           10.55       -56.72      27.2        
C           9.24        -58.04      25.72       
C           10.32       -57.1       25.89       
C           6.68        -59.03      31.25       
C           6.85        -57.72      31.32       
S           7.12        -59.62      29.68       
H           7.75        -56.15      30.07       
H           6.68        -57.17      32.26       
C           7.43        -57.18      30.17       
C           7.66        -58.05      29.17       
C           4.14        -59.62      35.24       
C           4.81        -60.16      34.18       
N           4.11        -58.29      35.03       
C           4.82        -57.9       33.86       
C           5.29        -61.45      33.66       
O           4.99        -62.52      34.08       
O           5.03        -56.73      33.65       
C           6.42        -62.31      31.68       
C           3.15        -57.36      35.56       
H           2.50575     -57.01978   34.74926    
H           3.63        -56.46      36.1        
H           2.58        -57.86      36.27       
H           7.35        -62.11      31.13       
H           5.74626     -62.59774   30.87292    
H           6.53        -63.06      32.45       
N           5.98        -61.18      32.45       
C           5.28        -59.19      33.28       
C           6.01        -59.79      32.25       
C           2.31        -61.97      37.8        
C           2.86        -60.92      38.44       
S           2.78        -61.97      36.12       
H           3.81        -58.95      37.79       
H           2.72        -60.66      39.49       
C           3.36        -59.93      37.54       
C           3.48        -60.36      36.29       
C           0.83        -65.46      40.09       
C           0.26        -65.13      38.79       
C           1.77        -64.61      40.55       
N           0.06        -64.05      36.83       
N           -0.84       -65.06      37.05       
N           -0.73       -65.8       38.16       
C           -1.69       -65.53      36.02       
H           2.24        -64.81      41.51       
H           3.13        -62.96      40.14       
H           -2.46873    -64.79453   35.81811    
H           -1.13       -65.62      35.12       
H           -2.14822    -66.46826   36.33275    
C           2.28        -63.49      39.76       
C           0.77        -64.06      37.99       
C           1.73        -63.14      38.53       
C           -0.5        -67.22      43.48       
C           -1.44       -67.25      42.52       
S           0.85        -66.44      42.75       
H           -1.69       -66.89      40.37       
H           -2.39       -67.7       42.77       
C           -1.02       -66.94      41.19       
C           0.25        -66.41      41.12       
C           -2.91       -68.9       47.26       
C           -1.75       -68.35      46.83       
N           -3.82       -68.94      46.25       
C           -3.29       -68.4       45.08       
C           -0.45       -67.93      47.22       
O           0.18        -67.84      48.27       
O           -4.06       -68.11      44.11       
C           1.48        -66.86      46.06       
C           -5.02       -69.77      46.09       
H           -4.80611    -70.53286   45.3414     
H           -5.92       -69.18      46.01       
H           -5.22       -70.33      47.0        
H           1.63        -65.98      45.43       
H           2.13082     -67.67698   45.74844    
H           1.71        -66.45      47.07       
N           0.12        -67.37      46.01       
C           -1.87       -68.04      45.43       
C           -0.75       -67.5       44.95       
C           -3.97       -69.57      51.17       
C           -2.68       -69.86      50.9        
S           -4.63       -69.29      49.52       
H           -1.16       -69.75      49.26       
H           -2.0        -70.18      51.67       
C           -2.16       -69.77      49.54       
C           -3.11       -69.32      48.69       
C           -6.33       -69.63      54.83       
C           -6.52       -68.8       53.73       
C           -5.25       -70.42      54.72       
N           -6.21       -67.89      51.68       
N           -7.2        -67.33      52.41       
N           -7.41       -67.8       53.64       
C           -8.26       -66.61      51.76       
H           -5.0        -71.12      55.53       
H           -3.59       -70.95      53.53       
H           -8.84095    -66.05084   52.49344    
H           -8.78       -67.37      51.14       
H           -7.83131    -65.85979   51.09553    
C           -4.48       -70.44      53.46       
C           -5.82       -68.85      52.5        
C           -4.73       -69.62      52.37       
H           25.28       12.71       43.76       
H           -6.75       -69.53      55.82       
