472

C           88.78       0.07        66.57       
C           89.36       -0.49       65.54       
S           88.74       1.77        66.4        
H           90.54       0.27        63.76       
H           89.36       -1.57       65.39       
C           90.08       0.49        64.74       
C           89.71       1.74        64.99       
C           86.48       -3.64       68.65       
C           86.98       -2.4        68.71       
N           86.5        -4.04       67.26       
C           87.36       -3.1        66.56       
C           87.07       -1.28       69.61       
O           86.78       -1.16       70.78       
O           87.44       -3.14       65.37       
C           88.37       0.73        69.58       
C           85.57       -4.94       66.6        
H           86.0965     -5.79644    66.1788     
H           85.07       -4.4        65.78       
H           84.82       -5.41       67.23       
H           88.21       1.63        68.98       
H           89.37064    0.53124     69.96381    
H           87.85       0.91        70.49       
N           87.84       -0.32       68.87       
C           87.64       -2.01       67.5        
C           88.05       -0.74       67.55       
C           85.76       -6.42       71.33       
C           85.9        -5.25       71.97       
S           85.9        -6.2        69.68       
H           86.48       -3.16       71.44       
H           85.78       -5.21       73.01       
C           86.1        -4.13       71.11       
C           86.04       -4.5        69.79       
C           84.91       -10.41      73.22       
C           84.76       -9.21       73.9        
C           85.16       -10.14      71.89       
N           84.98       -7.02       74.34       
N           84.67       -7.72       75.36       
N           84.57       -9.09       75.24       
C           84.46       -6.99       76.55       
H           85.2        -11.07      71.27       
H           85.68       -9.0        70.21       
H           84.41761    -5.92308    76.33096    
H           83.49       -7.32       76.88       
H           85.26874    -7.12133    77.26888    
C           85.47       -8.91       71.28       
C           85.1        -7.9        73.31       
C           85.38       -7.71       71.92       
C           85.0        -14.21      73.8        
C           84.09       -13.74      74.66       
S           85.79       -12.96      72.94       
H           83.39       -11.7       75.33       
H           83.45       -14.32      75.32       
C           84.05       -12.29      74.76       
C           84.79       -11.77      73.77       
C           84.35       -19.02      74.53       
C           85.09       -17.99      73.96       
N           83.33       -18.48      75.3        
C           83.43       -17.0       75.14       
C           86.14       -17.69      72.98       
O           86.92       -18.42      72.36       
O           82.52       -16.38      75.61       
C           87.02       -15.65      71.81       
C           82.89       -18.9       76.6        
H           83.7106     -18.92218   77.3171     
H           82.57       -19.92      76.6        
H           82.05       -18.28      76.96       
H           87.59       -14.77      72.16       
H           86.38258    -15.4423    70.95055    
H           87.77       -16.48      71.48       
N           86.14       -16.26      72.82       
C           84.51       -16.68      74.26       
C           85.2        -15.63      73.63       
C           83.98       -22.95      73.76       
C           85.0        -22.47      73.07       
S           83.29       -21.6       74.63       
H           86.34       -20.6       73.09       
H           85.54       -23.14      72.42       
C           85.43       -21.12      73.43       
C           84.5        -20.46      74.26       
C           81.87       -26.78      72.96       
C           81.87       -26.12      74.23       
C           82.58       -26.17      71.96       
N           82.32       -24.56      75.74       
N           81.62       -25.55      76.22       
N           81.27       -26.47      75.34       
C           81.13       -25.6       77.61       
H           82.59       -26.63      71.0        
H           83.82       -24.4       71.31       
H           81.2351     -24.61208   78.05842    
H           80.05       -25.8       77.57       
H           81.65324    -26.39561   78.14041    
C           83.33       -24.93      72.18       
C           82.53       -24.91      74.43       
C           83.28       -24.26      73.44       
C           79.75       -29.96      71.83       
C           80.17       -30.09      73.13       
S           80.41       -28.43      71.25       
H           81.08       -28.87      74.77       
H           79.68       -30.89      73.7        
C           80.86       -29.03      73.74       
C           81.12       -28.08      72.77       
C           77.73       -34.1       70.7        
C           77.97       -32.79      70.4        
N           78.16       -34.25      72.02       
C           78.75       -33.08      72.51       
C           77.57       -31.73      69.45       
O           76.78       -31.76      68.55       
O           79.32       -33.09      73.56       
C           78.04       -29.33      69.19       
C           77.78       -35.22      72.97       
H           78.52548    -36.01471   72.99813    
H           77.82       -34.84      73.99       
H           76.78       -35.57      72.75       
H           78.94       -28.77      68.87       
H           77.2648     -28.71878   69.65214    
H           77.68       -29.72      68.24       
N           78.24       -30.54      69.89       
C           78.65       -32.11      71.39       
C           79.05       -30.86      70.98       
C           75.9        -36.45      67.97       
C           76.22       -37.11      69.11       
S           76.52       -34.83      68.14       
H           77.35       -36.86      70.95       
H           76.09       -38.2       69.17       
C           76.91       -36.35      70.04       
C           77.13       -35.07      69.82       
C           73.86       -37.73      64.35       
C           74.0        -38.64      65.41       
C           74.37       -36.51      64.56       
N           74.71       -39.34      67.43       
N           74.04       -40.3       66.77       
N           73.72       -40.02      65.52       
C           73.62       -41.61      67.29       
H           74.27       -35.65      63.97       
H           75.28       -35.09      65.9        
H           73.67804    -41.58824   68.37824    
H           72.57       -41.83      66.92       
H           74.2779     -42.35889   66.84906    
C           74.92       -36.14      65.83       
C           74.64       -38.26      66.62       
C           75.2        -36.99      66.86       
C           70.94       -38.45      61.73       
C           71.86       -37.57      61.19       
S           71.68       -39.09      63.2        
H           73.75       -36.67      61.66       
H           71.64       -37.01      60.34       
C           73.03       -37.36      61.97       
C           73.03       -38.0       63.21       
C           67.35       -37.78      58.85       
C           67.8        -38.41      59.9        
N           68.41       -37.15      58.18       
C           69.63       -37.71      58.74       
C           67.38       -39.15      61.07       
O           66.31       -39.59      61.49       
O           70.68       -37.46      58.27       
C           68.44       -39.83      63.24       
C           68.46       -35.82      57.55       
H           68.94462    -35.14446   58.25491    
H           67.46       -35.44      57.39       
H           68.92       -35.88      56.56       
H           68.85       -39.25      63.92       
H           68.85974    -40.80464   63.489      
H           67.37       -39.88      63.5        
N           68.57       -39.33      61.85       
C           69.22       -38.29      60.02       
C           69.66       -38.81      61.21       
C           63.44       -37.39      58.41       
C           64.03       -37.2       57.22       
S           64.64       -37.82      59.61       
H           66.03       -37.16      56.4        
H           63.47       -37.04      56.28       
C           65.42       -37.3       57.28       
C           65.96       -37.66      58.46       
C           59.17       -37.53      59.5        
C           59.58       -37.09      58.23       
C           60.24       -37.87      60.34       
N           60.96       -36.47      56.57       
N           59.72       -36.31      56.17       
N           58.84       -36.65      57.13       
C           59.32       -36.08      54.81       
H           60.03       -38.1       61.35       
H           62.2        -37.75      60.85       
H           59.98011    -35.3844    54.29185    
H           59.31       -37.04      54.3        
H           58.31969    -35.64724   54.82419    
C           61.59       -37.72      59.99       
C           60.99       -36.85      57.9        
C           62.04       -37.34      58.8        
C           55.58       -38.05      60.78       
C           55.68       -38.71      59.57       
S           57.07       -37.22      61.14       
H           57.21       -38.97      57.98       
H           54.83       -39.24      59.08       
C           56.94       -38.56      58.96       
C           57.81       -37.91      59.72       
C           52.46       -36.8       64.24       
C           52.76       -36.98      62.88       
N           53.7        -37.0       64.86       
C           54.67       -37.67      64.0        
C           52.13       -37.0       61.56       
O           51.08       -36.68      61.13       
O           55.66       -38.16      64.45       
C           53.13       -36.79      59.31       
C           54.2        -36.53      66.12       
H           55.09038    -35.92951   65.93364    
H           54.47       -37.29      66.76       
H           53.43       -35.93      66.61       
H           53.16       -37.53      58.49       
H           53.9269     -36.05053   59.23103    
H           52.16       -36.29      59.18       
N           53.16       -37.39      60.64       
C           54.1        -37.49      62.69       
C           54.32       -37.72      61.36       
C           48.99       -36.08      66.08       
C           48.97       -35.58      64.83       
S           50.6        -36.51      66.4        
H           50.18       -35.58      62.98       
H           48.13       -35.19      64.36       
C           50.13       -35.8       64.09       
C           51.2        -36.25      64.8        
C           45.62       -36.38      69.05       
C           45.46       -35.74      67.8        
C           46.87       -36.93      69.22       
N           45.98       -34.97      65.69       
N           44.67       -34.67      66.11       
N           44.35       -35.2       67.32       
C           43.55       -34.27      65.27       
H           47.07       -37.47      70.12       
H           48.87       -37.26      68.54       
H           43.96226    -33.81276   64.37052    
H           42.95       -35.1       65.01       
H           42.88338    -33.57501   65.7806     
C           47.9        -36.83      68.28       
C           46.51       -35.66      66.81       
C           47.86       -36.2       67.02       
C           43.37       -37.27      72.11       
C           42.63       -36.44      71.33       
S           44.93       -37.55      71.38       
H           42.94       -35.29      69.47       
H           41.71       -36.04      71.68       
C           43.31       -35.96      70.17       
C           44.66       -36.4       70.12       
C           43.68       -39.58      76.31       
C           42.87       -39.25      75.25       
N           44.92       -39.09      76.0        
C           44.94       -38.27      74.82       
C           41.62       -39.37      74.64       
O           40.58       -39.88      75.03       
O           45.91       -37.75      74.35       
C           40.47       -38.44      72.61       
C           46.25       -39.48      76.46       
H           46.75861    -38.60405   76.86265    
H           46.86       -39.78      75.59       
H           46.15       -40.26      77.18       
H           40.67       -38.41      71.5        
H           39.90169    -37.53358   72.81862    
H           39.88       -39.32      72.8        
N           41.63       -38.64      73.41       
C           43.6        -38.44      74.28       
C           42.85       -37.98      73.27       
C           42.91       -40.94      79.98       
C           41.8        -41.06      79.21       
S           44.21       -40.36      78.94       
H           41.2        -40.98      77.13       
H           40.9        -41.55      79.55       
C           42.0        -40.8       77.82       
C           43.24       -40.3       77.5        
C           43.6        -42.14      84.16       
C           44.44       -41.2       83.48       
C           42.66       -42.71      83.36       
N           45.06       -39.87      81.72       
N           45.81       -39.7       82.88       
N           45.49       -40.47      83.93       
C           47.15       -39.24      82.75       
H           41.98       -43.34      83.86       
H           41.39       -42.78      81.57       
H           47.01176    -38.29418   82.22616    
H           47.73       -39.22      83.65       
H           47.70213    -39.876     82.05808    
C           42.27       -42.29      82.07       
C           44.24       -40.93      82.11       
C           43.15       -41.42      81.37       
C           43.45       -42.5       88.1        
C           44.73       -42.58      87.76       
S           42.49       -42.36      86.65       
H           46.05       -42.32      85.94       
H           45.54       -42.59      88.55       
C           45.01       -42.46      86.32       
C           43.83       -42.5       85.59       
C           43.77       -43.28      92.82       
C           43.19       -42.65      91.78       
N           44.72       -44.17      92.19       
C           44.69       -44.06      90.74       
C           42.15       -41.67      91.49       
O           41.46       -40.89      92.13       
O           45.41       -44.7       89.98       
C           41.91       -40.18      89.65       
C           45.89       -44.83      92.78       
H           46.67299    -44.0826    92.90813    
H           45.55       -45.45      93.65       
H           46.23       -45.55      92.0        
H           41.64       -40.34      88.57       
H           42.82065    -39.58196   89.68398    
H           41.03       -39.82      90.14       
N           42.15       -41.56      90.05       
C           43.67       -43.06      90.48       
C           42.99       -42.52      89.46       
C           42.03       -42.68      96.34       
C           43.39       -42.86      96.51       
S           41.67       -42.96      94.67       
H           45.13       -43.11      95.33       
H           43.9        -42.66      97.46       
C           44.08       -43.12      95.37       
C           43.33       -43.11      94.2        
C           38.8        -41.73      99.02       
C           40.13       -41.58      99.41       
C           38.58       -42.43      97.83       
N           42.27       -41.43      99.15       
N           41.87       -41.06      100.38      
N           40.58       -41.06      100.6       
C           42.77       -40.19      101.09      
H           37.61       -42.63      97.47       
H           39.26       -43.24      96.03       
H           43.79541    -40.42177   100.80204   
H           42.58       -39.09      100.8       
H           42.60693    -40.28512   102.16353   
C           39.6        -42.79      96.96       
C           41.12       -41.85      98.51       
C           40.91       -42.49      97.25       
C           35.67       -39.87      100.49      
C           36.45       -40.31      101.55      
S           36.5        -40.35      99.04       
H           38.29       -41.6       101.91      
H           36.3        -40.0       102.62      
C           37.56       -41.2       101.21      
C           37.72       -41.23      99.87       
C           32.05       -38.09      102.87      
C           32.69       -38.23      101.69      
N           32.51       -39.17      103.67      
C           33.57       -39.84      103.03      
C           32.74       -37.71      100.33      
O           32.07       -36.86      99.73       
O           34.07       -40.78      103.59      
C           34.37       -37.63      98.52       
C           32.05       -39.74      104.89      
H           32.62819    -39.33809   105.72203   
H           30.98       -39.54      105.01      
H           32.0        -40.84      104.98      
H           34.48       -38.35      97.7        
H           35.25401    -37.02361   98.71726    
H           33.53       -36.93      98.14       
N           33.86       -38.34      99.7        
C           33.76       -39.2       101.75      
C           34.5        -39.17      100.63      
C           29.42       -35.68      104.44      
C           29.14       -35.78      103.15      
S           30.65       -36.82      104.89      
H           29.96       -36.75      101.33      
H           28.4        -35.14      102.66      
C           30.03       -36.61      102.42      
C           30.9        -37.34      103.22      
C           27.75       -32.72      107.36      
C           28.62       -33.78      107.75      
C           27.49       -32.73      105.97      
N           30.11       -35.51      107.54      
N           30.04       -35.01      108.74      
N           29.12       -34.06      109.01      
C           30.97       -35.6       109.73      
H           26.86       -31.97      105.49      
H           27.59       -33.67      104.05      
H           31.89266    -35.92693   109.25051   
H           31.09       -34.84      110.5       
H           30.44368    -36.43796   110.18707   
C           28.02       -33.69      105.04      
C           29.2        -34.74      106.82      
C           28.86       -34.72      105.41      
C           26.31       -29.53      109.26      
C           26.77       -30.45      110.21      
S           26.36       -30.31      107.68      
H           27.69       -32.45      110.36      
H           26.8        -30.22      111.28      
C           27.28       -31.68      109.69      
C           27.21       -31.72      108.29      
C           25.13       -24.81      108.88      
C           25.1        -25.96      109.62      
N           25.52       -25.23      107.64      
C           25.81       -26.65      107.53      
C           24.8        -26.48      110.92      
O           24.41       -25.97      111.88      
O           26.27       -27.2       106.54      
C           24.56       -28.75      111.83      
C           25.37       -24.63      106.33      
H           24.45706    -25.04754   105.90538   
H           26.28       -24.82      105.7       
H           25.23       -23.53      106.5       
H           25.23       -29.1       112.61      
H           23.90074    -29.49433   111.3834    
H           23.89       -28.12      112.41      
N           25.21       -27.85      110.87      
C           25.61       -27.11      108.85      
C           25.7        -28.23      109.6       
C           25.24       -21.08      109.88      
C           24.5        -21.76      110.82      
S           25.67       -22.18      108.66      
H           23.86       -23.82      111.14      
H           24.17       -21.36      111.79      
C           24.36       -23.08      110.55      
C           24.81       -23.49      109.3       
C           26.82       -16.9       110.16      
C           27.22       -17.8       109.15      
C           25.84       -17.46      110.92      
N           27.45       -19.78      108.13      
N           28.07       -18.75      107.51      
N           28.14       -17.59      108.17      
C           28.95       -18.96      106.35      
H           25.46       -16.82      111.7       
H           24.43       -18.96      111.46      
H           28.71195    -19.9402    105.93692   
H           28.66       -18.19      105.66      
H           30.00804    -18.86643   106.59472   
C           25.26       -18.77      110.84      
C           26.73       -19.15      109.05      
C           25.72       -19.67      109.91      
C           27.63       -13.3       111.69      
C           28.55       -13.59      110.7       
S           26.49       -14.6       111.68      
H           29.19       -15.29      109.33      
H           29.37       -12.95      110.51      
C           28.4        -14.86      110.07      
C           27.33       -15.54      110.5       
C           28.12       -8.59       113.07      
C           27.58       -9.84       113.34      
N           28.98       -8.77       112.02      
C           28.98       -10.1       111.43      
C           26.69       -10.6       114.21      
O           26.02       -10.35      115.25      
O           29.66       -10.42      110.53      
C           26.49       -13.02      114.64      
C           30.26       -8.07       111.74      
H           31.02126    -8.49292    112.39553   
H           30.16       -6.97       111.9       
H           30.59       -8.16       110.69      
H           27.2        -13.81      114.65      
H           25.44432    -13.29933   114.51108   
H           26.55       -12.56      115.6       
N           26.83       -11.94      113.72      
C           28.04       -10.8       112.31      
C           27.55       -12.07      112.51      
C           27.85       -4.96       114.68      
C           27.01       -5.8        115.32      
S           28.79       -5.8        113.56      
H           26.43       -7.9        115.07      
H           26.29       -5.48       116.11      
C           27.14       -7.12       114.8       
C           27.96       -7.33       113.77      
C           28.59       -0.67       115.3       
C           27.65       -1.34       116.11      
C           29.19       -1.49       114.41      
N           26.57       -3.03       116.98      
N           26.26       -1.87       117.57      
N           27.01       -0.85       117.22      
C           25.56       -1.88       118.9       
H           30.02       -1.06       113.87      
H           29.63       -3.45       113.67      
H           25.46528    -2.92187    119.206     
H           24.56       -1.44       118.84      
H           26.00581    -1.21872    119.64301   
C           28.95       -2.87       114.27      
C           27.42       -2.73       115.98      
C           28.01       -3.56       114.94      
H           89.47       2.44        64.22       
H           28.5        0.4         115.15      
