472

C           18.48       87.23       4.8         
C           18.16       85.88       4.85        
S           19.01       87.58       3.17        
H           18.1        84.09       3.48        
H           17.82       85.46       5.73        
C           18.35       85.17       3.63        
C           18.64       85.98       2.56        
C           17.66       88.94       9.21        
C           18.03       89.16       7.89        
N           17.49       87.55       9.35        
C           17.67       86.93       8.08        
C           18.27       90.19       6.94        
O           18.06       91.42       7.07        
O           17.5        85.73       7.96        
C           18.89       90.37       4.59        
C           16.85       86.66       10.35       
H           15.80763    86.48982    10.08054    
H           16.84       87.15       11.34       
H           17.33       85.66       10.47       
H           18.27       89.95       3.78        
H           19.94535    90.45175    4.32988     
H           18.49       91.33       4.75        
N           18.7        89.55       5.73        
C           18.12       87.94       7.12        
C           18.45       88.22       5.81        
C           17.87       92.18       11.49       
C           17.07       91.27       12.12       
S           18.61       91.39       10.16       
H           16.46       89.09       11.81       
H           16.52       91.48       12.97       
C           17.04       89.97       11.46       
C           17.7        89.97       10.26       
C           18.59       96.48       11.92       
C           17.77       95.8        12.88       
C           19.24       95.61       11.05       
N           16.46       94.1        13.58       
N           16.24       95.26       14.26       
N           16.99       96.29       13.95       
C           15.04       95.33       15.14       
H           19.96       96.03       10.4        
H           19.84       93.71       10.44       
H           14.61582    94.3356     15.27908    
H           15.32       95.77       16.08       
H           14.24238    95.97807    14.7768     
C           19.11       94.22       11.05       
C           17.45       94.36       12.74       
C           18.11       93.59       11.72       
C           18.91       100.48      12.0        
C           19.85       99.99       11.16       
S           18.15       99.11       12.77       
H           20.18       98.17       10.03       
H           20.45       100.64      10.61       
C           19.68       98.6        10.88       
C           18.82       97.94       11.75       
C           20.12       105.03      12.63       
C           19.25       104.01      12.97       
N           21.23       104.4       12.15       
C           21.06       103.0       11.92       
C           18.0        103.69      13.56       
O           17.22       104.39      14.22       
O           21.78       102.36      11.13       
C           16.44       101.82      13.4        
C           22.6        105.0       12.09       
H           23.36899    104.44662   12.62901    
H           22.55       106.0       12.45       
H           22.94       104.98      11.03       
H           16.37       100.8       13.61       
H           15.87317    102.04243   12.49594    
H           15.9        102.4       14.14       
N           17.81       102.32      13.26       
C           19.74       102.81      12.39       
C           18.86       101.82      12.47       
C           19.48       108.88      12.75       
C           18.74       108.28      13.64       
S           20.45       107.65      11.87       
H           18.53       106.36      14.65       
H           18.07       108.84      14.22       
C           19.02       106.9       13.87       
C           19.91       106.4       12.96       
C           19.07       113.07      11.12       
C           18.16       112.56      12.11       
C           20.11       112.22      10.87       
N           17.13       111.03      13.41       
N           16.49       112.19      13.36       
N           17.09       113.09      12.69       
C           15.06       112.28      13.73       
H           20.88       112.49      10.18       
H           21.01       110.3       10.96       
H           14.76501    111.26159   13.98285    
H           14.94       112.98      14.52       
H           14.43307    112.61484   12.90359    
C           20.23       110.86      11.42       
C           18.27       111.21      12.6        
C           19.36       110.27      12.27       
C           19.28       117.02      10.51       
C           19.21       116.35      9.29        
S           19.23       115.78      11.77       
H           18.89       114.45      8.54        
H           19.24       116.94      8.35        
C           18.98       115.01      9.44        
C           18.96       114.47      10.66       
C           18.38       121.73      9.46        
C           18.82       120.73      10.34       
N           17.73       121.03      8.46        
C           17.96       119.63      8.54        
C           19.44       120.58      11.67       
O           19.9        121.41      12.52       
O           17.44       118.85      7.78        
C           20.66       118.66      12.67       
C           16.54       121.39      7.69        
H           15.64435    121.38278   8.31118     
H           16.69       122.34      7.31        
H           16.5        120.81      6.73        
H           21.37       117.94      12.3        
H           20.2587     118.51668   13.67325    
H           21.34       119.43      12.91       
N           19.77       119.18      11.7        
C           18.68       119.42      9.8         
C           19.12       118.43      10.69       
C           18.63       125.63      9.4         
C           18.65       125.23      10.71       
S           18.12       124.3       8.37        
H           18.7        123.29      11.78       
H           18.91       125.99      11.44       
C           18.62       123.79      10.84       
C           18.33       123.16      9.66        
C           20.18       129.57      7.95        
C           19.34       128.75      7.12        
C           20.46       128.99      9.1         
N           17.85       127.08      6.73        
N           18.01       127.92      5.68        
N           18.88       128.93      5.84        
C           17.08       128.02      4.55        
H           21.23       129.39      9.73        
H           20.24       127.5       10.59       
H           16.99668    127.04793   4.06396     
H           16.12       128.43      4.84        
H           17.46177    128.74883   3.83505     
C           19.9        127.74      9.55        
C           18.7        127.56      7.66        
C           18.94       127.02      9.0         
C           22.92       132.13      7.15        
C           22.0        132.25      6.2         
S           22.39       131.0       8.28        
H           20.14       131.19      5.57        
H           22.11       132.82      5.28        
C           20.9        131.4       6.35        
C           20.9        130.72      7.48        
C           27.07       133.55      5.26        
C           26.42       133.19      6.38        
N           26.29       133.26      4.15        
C           24.99       132.93      4.54        
C           26.49       133.06      7.8         
O           27.31       133.46      8.59        
O           24.19       132.67      3.73        
C           24.79       132.82      9.62        
C           26.81       132.77      2.88        
H           26.60763    133.54459   2.1403      
H           26.31       131.84      2.64        
H           27.85       132.65      2.98        
H           24.48       131.81      9.98        
H           24.06517    133.60168   9.8474      
H           25.63       133.09      10.21       
N           25.16       132.65      8.23        
C           25.09       132.83      5.96        
C           24.33       132.48      7.1         
C           30.79       134.65      6.01        
C           30.51       134.88      4.65        
S           29.43       133.77      6.62        
H           28.73       134.75      3.32        
H           31.24       135.35      4.0         
C           29.19       134.49      4.27        
C           28.43       133.93      5.28        
C           34.89       134.64      7.9         
C           33.71       134.67      8.67        
C           34.66       134.67      6.54        
N           31.51       134.6       8.96        
N           32.21       134.51      10.06       
N           33.57       134.51      9.97        
C           31.47       134.56      11.32       
H           35.56       134.66      5.92        
H           33.31       134.61      4.87        
H           30.43944    134.32776   11.05147    
H           31.81       133.71      11.99       
H           31.61112    135.49842   11.85624    
C           33.36       134.66      5.92        
C           32.44       134.66      8.05        
C           32.15       134.69      6.63        
C           38.28       133.14      9.39        
C           38.64       134.03      8.43        
S           36.57       133.15      9.52        
H           37.62       135.44      7.1         
H           39.65       134.2       8.06        
C           37.48       134.76      7.88        
C           36.27       134.39      8.39        
C           42.55       131.23      11.01       
C           41.13       131.32      11.14       
N           42.85       132.02      9.91        
C           41.77       132.79      9.4         
C           39.98       130.7       11.81       
O           39.89       129.92      12.72       
O           41.89       133.7       8.63        
C           37.55       130.91      11.56       
C           43.95       131.74      8.96        
H           43.58115    130.92998   8.33079     
H           44.8        131.35      9.47        
H           44.27       132.63      8.37        
H           36.83       130.82      10.79       
H           37.16516    131.56286   12.34343    
H           37.72       129.88      11.91       
N           38.85       131.33      11.13       
C           40.58       132.18      10.08       
C           39.17       132.26      10.19       
C           45.36       129.24      13.03       
C           44.15       129.13      13.6        
S           45.23       130.11      11.52       
H           42.14       130.05      13.28       
H           43.98       128.47      14.42       
C           43.19       130.0       13.01       
C           43.52       130.49      11.82       
C           48.99       126.87      14.0        
C           47.75       126.75      14.7        
C           48.86       127.8       13.02       
N           45.72       127.2       15.37       
N           46.28       126.38      16.21       
N           47.51       125.97      15.79       
C           45.76       126.27      17.56       
H           49.77       128.05      12.38       
H           47.74       129.15      11.86       
H           44.67671    126.38582   17.52593    
H           46.16       125.39      18.16       
H           46.17382    127.11243   18.11423    
C           47.61       128.48      12.63       
C           46.59       127.5       14.4        
C           46.52       128.47      13.37       
C           52.61       125.46      14.79       
C           51.72       124.74      15.48       
S           51.76       126.58      13.74       
H           49.57       124.62      15.73       
H           52.0        123.95      16.09       
C           50.37       125.14      15.31       
C           50.19       126.19      14.43       
C           56.66       124.94      17.28       
C           56.03       125.36      16.09       
N           55.68       124.41      18.07       
C           54.44       124.34      17.36       
C           56.28       126.07      14.87       
O           57.28       126.53      14.34       
O           53.54       123.68      17.92       
C           54.93       126.4       12.81       
C           55.79       124.24      19.53       
H           54.94446    124.74028   20.0021     
H           56.7        124.64      19.97       
H           55.72       123.2       19.81       
H           54.14       127.2       12.59       
H           54.83164    125.50772   12.19173    
H           55.76       127.14      12.64       
N           54.98       126.14      14.24       
C           54.66       125.07      16.12       
C           54.03       125.47      15.03       
C           60.41       126.0       17.88       
C           60.2        124.77      18.39       
S           58.91       126.57      17.28       
H           58.54       123.3       18.78       
H           60.99       124.19      18.77       
C           58.84       124.31      18.41       
C           58.04       125.13      17.6        
C           64.1        128.39      17.07       
C           64.09       126.99      17.45       
C           62.78       128.88      16.91       
N           63.34       125.01      18.3        
N           64.63       125.17      18.31       
N           65.16       126.3       17.96       
C           65.5        124.03      18.57       
H           62.64       129.82      16.4        
H           60.73       128.53      16.92       
H           64.8785     123.2206    18.95302    
H           66.02       123.81      17.66       
H           66.29075    124.26093   19.28378    
C           61.68       128.01      17.14       
C           62.94       126.19      17.78       
C           61.65       126.72      17.69       
C           66.77       130.95      15.47       
C           67.43       129.84      15.9        
S           65.07       130.68      15.79       
H           66.96       127.88      16.93       
H           68.46       129.77      15.74       
C           66.59       128.85      16.59       
C           65.25       129.15      16.6        
C           70.2        134.4       14.86       
C           68.91       133.98      14.69       
N           70.94       133.24      15.16       
C           70.06       132.11      15.41       
C           67.59       134.41      14.25       
O           67.1        135.38      13.79       
O           70.43       131.06      15.88       
C           65.41       133.81      14.96       
C           72.3        133.06      15.7        
H           72.26328    133.20686   16.77944    
H           72.71       132.13      15.32       
H           72.98       133.78      15.24       
H           65.04       133.21      15.77       
H           64.64731    133.86037   14.18292    
H           65.58       134.78      15.36       
N           66.77       133.34      14.55       
C           68.75       132.61      15.13       
C           67.41       132.23      15.05       
C           71.43       138.07      14.57       
C           70.67       137.76      13.48       
S           71.63       136.63      15.52       
H           69.54       136.08      12.68       
H           70.54       138.43      12.61       
C           70.12       136.45      13.47       
C           70.66       135.68      14.45       
C           73.49       141.7       15.87       
C           72.89       141.6       14.59       
C           73.31       140.55      16.69       
N           71.54       140.74      12.98       
N           71.94       142.0       12.69       
N           72.74       142.47      13.54       
C           71.81       142.64      11.34       
H           73.81       140.54      17.66       
H           72.5        138.55      16.8        
H           71.22428    141.98999   10.68999    
H           71.25       143.54      11.55       
H           72.79129    142.87466   10.92757    
C           72.58       139.43      16.15       
C           72.17       140.49      14.17       
C           72.04       139.3       14.97       
C           75.59       145.01      16.6        
C           75.56       144.26      17.74       
S           74.41       144.39      15.51       
H           74.93       142.19      18.31       
H           76.12       144.47      18.67       
C           74.94       143.01      17.54       
C           74.22       142.93      16.4        
C           77.74       149.03      17.88       
C           77.2        148.29      16.87       
N           77.62       148.3       18.98       
C           76.79       147.11      18.79       
C           77.02       148.28      15.4        
O           77.33       148.97      14.45       
O           76.57       146.44      19.77       
C           76.56       146.31      14.0        
C           78.49       148.4       20.2        
H           79.34623    147.73804   20.07049    
H           78.73       149.38      20.52       
H           77.91       148.09      21.04       
H           75.59       145.93      13.69       
H           77.44702    145.68553   13.89356    
H           76.76       147.04      13.22       
N           76.45       146.93      15.25       
C           76.61       147.04      17.41       
C           76.13       146.28      16.44       
C           79.4        152.69      17.94       
C           78.54       152.56      16.87       
S           79.36       151.19      18.78       
H           77.08       151.16      15.97       
H           78.35       153.34      16.19       
C           77.8        151.34      16.78       
C           78.15       150.4       17.77       
C           81.81       156.22      18.91       
C           81.8        155.06      19.69       
C           81.01       156.15      17.83       
N           81.21       152.98      20.33       
N           82.02       153.53      21.1        
N           82.41       154.73      20.86       
C           82.73       152.63      22.06       
H           80.79       157.01      17.28       
H           79.7        155.03      16.6        
H           81.95524    152.02665   22.53308    
H           83.39       152.05      21.48       
H           83.22418    153.24045   22.8158     
C           80.35       154.95      17.43       
C           81.0        153.94      19.43       
C           80.29       153.85      18.23       
C           83.85       159.58      19.33       
C           83.85       158.95      20.53       
S           82.8        158.72      18.22       
H           83.06       157.05      21.44       
H           84.43       159.34      21.35       
C           83.08       157.76      20.59       
C           82.46       157.44      19.35       
C           85.71       163.01      16.61       
C           85.54       162.49      17.85       
N           85.5        161.98      15.76       
C           84.92       160.79      16.48       
C           85.53       162.95      19.24       
O           85.93       163.93      19.84       
O           84.58       159.8       15.79       
C           84.18       162.16      21.15       
C           85.75       161.94      14.29       
H           84.78515    161.93296   13.78293    
H           86.36       161.1       14.07       
H           86.41       162.67      13.93       
H           84.34       161.26      21.83       
H           83.11582    162.34695   21.00619    
H           84.66       163.02      21.67       
N           84.8        161.87      19.91       
C           84.93       161.19      17.85       
C           84.62       160.76      19.07       
C           86.98       166.64      15.15       
C           87.31       166.49      16.44       
S           86.11       165.2       14.67       
H           86.91       165.11      18.15       
H           87.87       167.26      16.98       
C           86.8        165.33      17.1        
C           86.23       164.37      16.23       
C           87.47       170.14      12.53       
C           88.17       169.95      13.73       
C           86.83       168.98      12.13       
N           88.88       169.14      15.61       
N           89.29       170.33      15.43       
N           88.96       170.9       14.33       
C           89.95       171.14      16.47       
H           86.32       168.9       11.22       
H           85.93       167.16      12.69       
H           89.87835    170.70293   17.46596    
H           90.94       171.33      16.1        
H           89.53816    172.1483    16.5126     
C           86.7        167.83      12.95       
C           88.15       168.86      14.53       
C           87.33       167.74      14.2        
C           86.58       173.07      9.98        
C           87.6        173.53      10.75       
S           86.14       171.5       10.49       
H           89.01       172.75      12.3        
H           88.07       174.51      10.69       
C           88.11       172.54      11.7        
C           87.4        171.36      11.69       
C           83.61       173.97      6.35        
C           84.32       174.41      7.41        
N           83.77       172.64      6.28        
C           84.6        172.13      7.37        
C           84.62       175.68      8.11        
O           84.16       176.8       8.06        
O           84.78       170.95      7.56        
C           85.76       176.14      10.24       
C           83.68       171.85      5.06        
H           83.10935    170.93262   5.20447     
H           84.6        171.82      4.55        
H           83.0        172.2       4.32        
H           86.75       176.04      10.72       
H           85.14017    176.06793   11.13371    
H           85.83       177.12      9.78        
N           85.49       175.24      9.19        
C           85.01       173.38      8.07        
C           85.83       173.9       9.04        
C           81.03       175.82      3.86        
C           81.92       176.7       4.41        
S           81.36       174.25      4.59        
H           83.75       176.76      5.73        
H           81.8        177.78      4.36        
C           82.94       176.11      5.27        
C           82.86       174.73      5.34        
C           77.61       176.67      1.17        
C           78.06       177.59      2.21        
C           78.39       175.53      1.22        
N           79.51       178.52      3.66        
N           78.53       179.35      3.29        
N           77.72       178.9       2.34        
C           78.4        180.71      3.85        
H           78.12       174.71      0.47        
H           79.71       174.14      2.26        
H           79.36497    180.90299   4.3187      
H           77.56       180.71      4.56        
H           78.18532    181.43276   3.06283     
C           79.34       175.18      2.23        
C           79.13       177.32      3.11        
C           79.79       176.06      3.13        
H           18.25       85.75       1.56        
H           76.59       176.69      0.74        
