472

C           23.27       29.33       22.79       
C           21.97       29.26       22.59       
S           24.0        30.42       21.66       
H           20.49       30.12       21.21       
H           21.38       28.61       23.12       
C           21.51       30.02       21.44       
C           22.49       30.84       20.97       
C           23.74       26.42       26.61       
C           24.34       27.22       25.64       
N           22.36       26.56       26.51       
C           22.05       27.43       25.42       
C           25.65       27.72       25.14       
O           26.75       27.57       25.54       
O           20.93       27.81       25.18       
C           26.43       29.27       23.41       
C           21.17       26.12       27.27       
H           20.66206    25.35452    26.68337    
H           20.61       26.98       27.56       
H           21.42       25.57       28.24       
H           26.19       30.36       23.35       
H           26.83866    28.847      22.4923     
H           27.18       29.31       24.17       
N           25.32       28.49       23.99       
C           23.37       27.9        24.87       
C           23.95       28.65       23.85       
C           24.99       23.6        29.05       
C           26.06       24.1        28.33       
S           23.51       24.47       28.7        
H           26.43       25.71       26.89       
H           27.13       23.79       28.44       
C           25.68       25.17       27.49       
C           24.39       25.5        27.52       
C           25.29       20.37       32.01       
C           24.1        20.71       31.37       
C           26.29       21.15       31.61       
N           22.61       21.94       30.26       
N           21.99       21.0        30.89       
N           22.82       20.12       31.49       
C           20.77       20.4        30.27       
H           27.28       21.01       32.07       
H           27.19       22.58       30.36       
H           20.49966    20.98573    29.3914     
H           20.85       19.32       29.94       
H           19.95914    20.40687    30.9984     
C           26.24       22.17       30.63       
C           23.92       21.79       30.49       
C           25.06       22.52       29.98       
C           26.38       17.36       34.4        
C           25.0        17.35       34.26       
S           26.9        18.58       33.4        
H           23.41       18.36       33.14       
H           24.37       16.61       34.71       
C           24.46       18.32       33.48       
C           25.37       19.2        32.87       
C           30.16       15.24       36.42       
C           28.9        15.59       36.57       
N           30.68       15.87       35.29       
C           29.63       16.55       34.59       
C           27.73       15.46       37.41       
O           27.56       14.93       38.5        
O           29.86       17.05       33.52       
C           25.61       16.61       37.56       
C           32.06       16.06       34.7        
H           32.17371    15.5554     33.74055    
H           32.89       15.77       35.35       
H           32.23       17.13       34.55       
H           24.69       16.72       37.04       
H           25.81591    17.52595    38.11383    
H           25.43       15.92       38.36       
N           26.64       16.11       36.66       
C           28.42       16.31       35.4        
C           27.06       16.59       35.37       
C           31.91       13.26       39.21       
C           32.65       13.11       38.1        
S           30.63       14.36       38.99       
H           32.49       13.7        35.97       
H           33.58       12.5        38.06       
C           32.13       13.83       36.95       
C           31.02       14.61       37.33       
C           32.17       11.46       43.22       
C           32.86       10.94       42.12       
C           31.47       12.66       42.91       
N           33.61       10.87       40.0        
N           34.16       10.0        40.77       
N           33.72       9.93        42.01       
C           35.45       9.38        40.43       
H           30.94       13.27       43.7        
H           30.75       14.08       41.59       
H           35.57839    9.54405     39.36009    
H           36.27       9.73        41.02       
H           35.44311    8.31864     40.67811    
C           31.37       13.21       41.63       
C           32.77       11.56       40.83       
C           31.98       12.69       40.52       
C           32.18       10.77       47.18       
C           33.05       9.9         46.59       
S           31.33       11.62       45.93       
H           33.67       9.36        44.44       
H           33.61       9.13        47.16       
C           33.12       9.98        45.14       
C           32.31       10.98       44.62       
C           30.79       12.61       51.35       
C           31.11       11.54       50.61       
N           30.65       13.69       50.49       
C           31.16       13.38       49.18       
C           31.29       10.11       50.61       
O           31.27       9.31        51.55       
O           31.26       14.24       48.27       
C           31.39       8.26        48.93       
C           29.84       14.8        50.73       
H           30.44058    15.65082    51.05174    
H           29.37       15.1        49.77       
H           29.12       14.53       51.52       
H           32.28       7.84        48.42       
H           30.5511     8.12637     48.247      
H           31.14       7.65        49.8        
N           31.59       9.7         49.3        
C           31.4        11.91       49.24       
C           31.77       10.81       48.51       
C           30.34       13.11       55.28       
C           30.12       11.75       54.95       
S           30.67       14.0        53.77       
H           30.07       10.53       53.1        
H           30.09       10.97       55.64       
C           30.17       11.51       53.53       
C           30.43       12.63       52.75       
C           30.16       15.47       58.9        
C           30.17       14.1        59.03       
C           30.45       15.99       57.68       
N           30.23       12.0        58.21       
N           30.13       12.04       59.49       
N           30.01       13.25       60.02       
C           30.44       10.84       60.3        
H           30.62       16.99       57.62       
H           30.79       15.76       55.58       
H           30.56731    9.99124     59.62806    
H           31.24       11.11       60.97       
H           29.58805    10.59357    60.93368    
C           30.54       15.25       56.53       
C           30.28       13.32       57.88       
C           30.43       13.83       56.56       
C           30.21       18.22       61.77       
C           30.54       16.99       62.25       
S           30.04       18.02       60.07       
H           30.49       14.88       61.82       
H           30.97       16.98       63.29       
C           30.43       15.89       61.4        
C           30.27       16.26       60.09       
C           31.66       21.46       65.12       
C           30.91       21.19       64.02       
N           32.33       20.3        65.49       
C           31.81       19.24       64.7        
C           29.95       21.77       63.06       
O           29.54       22.86       62.88       
O           32.05       18.09       64.92       
C           28.38       20.8        61.4        
C           33.52       20.21       66.23       
H           34.32692    19.84256    65.59599    
H           33.3        19.52       67.08       
H           33.8        21.15       66.58       
H           27.77       19.91       61.55       
H           28.58378    20.97359    60.34338    
H           27.87       21.66       61.79       
N           29.64       20.67       62.17       
C           31.06       19.83       63.61       
C           30.38       19.57       62.46       
C           32.08       25.04       66.78       
C           31.58       25.1        65.5        
S           32.21       23.32       67.18       
H           31.64       23.81       63.65       
H           31.27       26.0        65.07       
C           31.87       23.9        64.73       
C           32.06       22.78       65.55       
C           31.12       27.78       70.07       
C           32.19       26.85       70.19       
C           30.53       27.8        68.89       
N           33.48       25.16       69.58       
N           33.75       25.5        70.81       
N           32.99       26.51       71.26       
C           34.81       24.91       71.66       
H           29.73       28.5        68.74       
H           30.32       26.99       66.89       
H           34.81       23.83464    71.48196    
H           35.77       25.34       71.39       
H           34.58992    25.17409    72.69437    
C           30.87       26.99       67.78       
C           32.57       26.0        69.12       
C           31.93       26.05       67.86       
C           30.64       30.19       73.16       
C           29.43       29.96       72.6        
S           31.76       29.12       72.44       
H           28.7        28.96       70.72       
H           28.46       30.42       72.97       
C           29.48       29.15       71.43       
C           30.65       28.53       71.26       
C           30.05       32.69       77.09       
C           30.84       32.24       76.09       
N           28.81       32.16       76.87       
C           28.8        31.3        75.67       
C           32.16       32.43       75.6        
O           33.11       33.02       76.01       
O           27.84       30.75       75.25       
C           32.73       32.42       73.26       
C           27.56       32.4        77.54       
H           26.94636    33.08499    76.9549     
H           27.74       32.86       78.48       
H           27.09       31.45       77.75       
H           32.21       32.49       72.31       
H           33.7159     31.98648    73.09219    
H           32.87       33.42       73.58       
N           32.11       31.73       74.34       
C           30.18       31.36       75.28       
C           30.99       30.94       74.3        
C           31.31       35.95       78.73       
C           30.88       35.16       79.73       
S           31.26       35.17       77.16       
H           29.82       33.17       79.76       
H           30.87       35.5        80.75       
C           30.23       33.97       79.17       
C           30.46       33.8        77.85       
C           33.78       39.41       77.96       
C           33.88       38.8        79.19       
C           32.68       39.13       77.2        
N           33.4        37.22       80.72       
N           34.54       37.88       81.04       
N           34.79       38.89       80.17       
C           35.54       37.12       81.69       
H           32.45       39.6        76.24       
H           31.09       37.77       76.84       
H           35.0882     36.19454    82.04707    
H           36.36       37.04       80.97       
H           36.05933    37.65318    82.48631    
C           31.83       38.07       77.58       
C           32.98       37.76       79.55       
C           32.02       37.23       78.66       
C           36.13       41.62       75.74       
C           36.82       41.38       76.86       
S           34.49       41.08       75.85       
H           36.56       40.14       78.69       
H           37.77       41.82       77.09       
C           36.09       40.57       77.8        
C           34.87       40.21       77.35       
C           35.95       44.3        71.8        
C           36.61       43.63       72.72       
N           34.68       43.8        72.01       
C           34.53       42.99       73.16       
C           38.0        43.34       73.05       
O           39.03       43.6        72.48       
O           33.41       42.65       73.65       
C           38.95       41.6        74.46       
C           33.57       43.88       71.11       
H           33.44567    42.90002    70.64926    
H           33.73       44.49       70.2        
H           32.64       44.08       71.68       
H           38.64       40.62       74.77       
H           39.64991    41.92139    75.23133    
H           39.43       41.6        73.46       
N           37.9        42.54       74.26       
C           35.87       42.84       73.61       
C           36.67       42.34       74.61       
C           36.74       46.79       68.7        
C           37.86       46.18       69.15       
S           35.5        46.29       69.79       
H           38.28       44.43       70.55       
H           38.8        46.38       68.63       
C           37.62       45.2        70.22       
C           36.34       45.09       70.63       
C           35.61       49.31       65.25       
C           36.95       48.79       65.43       
C           34.78       49.03       66.35       
N           38.69       47.66       66.3        
N           39.0        48.28       65.17       
N           37.94       48.81       64.53       
C           40.33       48.25       64.58       
H           33.73       49.37       66.24       
H           34.51       48.23       68.31       
H           41.03186    47.72903    65.23121    
H           40.28       47.68       63.64       
H           40.70023    49.2518     64.36222    
C           35.19       48.28       67.47       
C           37.35       48.01       66.52       
C           36.46       47.68       67.52       
C           33.51       49.54       61.9        
C           33.45       50.74       62.5        
S           34.74       48.66       62.74       
H           34.24       51.76       64.34       
H           32.81       51.57       62.12       
C           34.25       50.89       63.72       
C           35.02       49.81       64.0        
C           30.6        50.17       58.22       
C           31.31       49.33       58.99       
N           31.03       51.44       58.53       
C           32.07       51.42       59.46       
C           31.65       47.94       59.12       
O           31.21       46.94       58.6        
O           32.68       52.4        59.74       
C           33.12       46.59       60.8        
C           30.33       52.73       58.3        
H           29.58761    52.87277    59.08522    
H           31.04       53.52       58.37       
H           29.98       52.85       57.25       
H           33.26       46.69       61.87       
H           34.05492    46.43418    60.26171    
H           32.39       45.86       60.51       
N           32.44       47.83       60.32       
C           32.23       50.04       59.86       
C           32.87       49.11       60.67       
C           27.33       49.76       55.91       
C           27.57       48.61       56.67       
S           28.73       50.81       56.18       
H           29.12       48.0        58.29       
H           26.85       47.82       56.75       
C           28.73       48.67       57.54       
C           29.43       49.82       57.44       
C           23.77       51.77       54.19       
C           23.67       50.46       54.8        
C           25.04       52.15       53.93       
N           24.4        48.68       55.94       
N           23.13       48.58       55.63       
N           22.58       49.57       55.02       
C           22.28       47.61       56.27       
H           25.17       53.08       53.39       
H           27.18       51.79       54.25       
H           22.89397    46.94425    56.87657    
H           21.47       48.13       56.84       
H           21.78926    47.05334    55.47163    
C           26.17       51.41       54.43       
C           24.83       49.74       55.24       
C           26.16       50.21       55.15       
C           20.42       53.26       52.79       
C           21.39       54.17       52.55       
S           21.07       51.88       53.65       
H           23.58       54.29       53.02       
H           21.28       55.06       51.99       
C           22.66       53.78       53.1        
C           22.67       52.54       53.62       
C           16.67       55.86       51.8        
C           17.15       54.62       51.97       
N           17.69       56.73       52.01       
C           18.87       56.16       52.59       
C           16.86       53.2        51.89       
O           15.87       52.48       51.67       
O           19.89       56.76       52.92       
C           18.37       51.28       51.66       
C           17.79       58.09       51.59       
H           17.54879    58.71129    52.4525     
H           18.88       58.26       51.41       
H           17.16       58.31       50.75       
H           19.13       50.74       52.22       
H           18.52667    51.19455    50.58471    
H           17.51       50.72       51.98       
N           18.12       52.6        52.11       
C           18.47       54.82       52.44       
C           19.01       53.54       52.58       
C           13.18       57.25       50.49       
C           13.11       55.93       50.7        
S           14.76       57.83       50.93       
H           14.43       54.29       51.47       
H           12.34       55.31       50.38       
C           14.29       55.34       51.25       
C           15.32       56.27       51.39       
C           10.15       60.27       49.62       
C           9.99        58.89       49.12       
C           11.32       60.44       50.31       
N           10.48       56.73       48.85       
N           9.33        57.04       48.27       
N           8.98        58.38       48.44       
C           8.76        56.26       47.24       
H           11.56       61.34       50.93       
H           13.2        59.88       50.93       
H           8.80965     55.20323    47.50242    
H           7.69        56.55       47.22       
H           9.35303     56.50004    46.35751    
C           12.29       59.47       50.49       
C           10.96       57.85       49.36       
C           12.15       58.18       50.03       
C           7.03        62.73       48.91       
C           8.14        63.4        49.37       
S           7.49        61.09       48.77       
H           10.28       63.09       49.94       
H           8.08        64.44       49.55       
C           9.32        62.65       49.66       
C           9.12        61.3        49.43       
C           3.72        66.25       48.23       
C           4.02        64.87       48.42       
N           4.94        66.96       48.38       
C           6.07        66.06       48.45       
C           3.4         63.62       48.55       
O           2.25        63.35       48.7        
O           7.18        66.4        48.46       
C           4.19        61.36       48.45       
C           5.29        68.38       48.59       
H           5.7509      68.51473    49.56853    
H           4.4         68.93       48.69       
H           5.9         68.73       47.65       
H           4.79        60.69       49.13       
H           4.22491     61.05979    47.40274    
H           3.14        61.14       48.8        
N           4.48        62.76       48.67       
C           5.42        64.75       48.57       
C           5.72        63.39       48.63       
C           0.51        68.48       47.42       
C           0.11        67.16       47.58       
S           2.24        68.44       47.48       
H           0.98        65.27       48.19       
H           -0.9        66.88       47.46       
C           1.21        66.27       47.94       
C           2.46        66.83       48.02       
C           -1.39       72.16       45.97       
C           -0.24       72.22       46.84       
C           -1.89       70.91       45.8        
N           1.43        71.41       48.03       
N           1.45        72.78       48.0        
N           0.41        73.25       47.4        
C           2.61        73.58       48.24       
H           -2.8        70.78       45.16       
H           -1.74       68.82       45.81       
H           3.50642     72.96326    48.30454    
H           2.8         74.34       47.48       
H           2.40305     74.10093    49.17483    
C           -1.24       69.72       46.21       
C           0.35        71.01       47.33       
C           -0.2        69.7        47.09       
C           -3.31       75.23       44.03       
C           -1.94       75.57       44.23       
S           -3.51       73.58       44.63       
H           -0.07       74.67       45.11       
H           -1.52       76.52       43.96       
C           -1.14       74.56       44.89       
C           -1.84       73.4        45.22       
C           -5.41       78.88       41.74       
C           -5.52       77.64       42.29       
N           -4.08       79.29       41.86       
C           -3.28       78.26       42.47       
C           -6.45       76.61       42.72       
O           -7.62       76.47       42.59       
O           -2.11       78.46       42.77       
C           -6.32       74.31       43.44       
C           -3.43       80.32       41.12       
H           -3.07342    79.87428    40.19141    
H           -2.59       80.7        41.66       
H           -4.05       81.19       40.91       
H           -5.99       73.77       44.32       
H           -6.34127    73.76397    42.49687    
H           -7.25       74.6        43.82       
N           -5.6        75.59       43.3        
C           -4.27       77.21       42.78       
C           -4.36       75.98       43.41       
C           -8.18       81.26       40.21       
C           -8.64       79.99       40.16       
S           -6.62       81.31       40.96       
H           -7.81       77.95       40.79       
H           -9.67       79.7        40.06       
C           -7.65       79.08       40.67       
C           -6.5        79.56       41.04       
C           -10.24      85.2        39.96       
C           -10.95      83.98       39.87       
C           -8.89       85.0        39.93       
N           -11.29      81.78       39.75       
N           -12.36      82.51       39.71       
N           -12.28      83.77       39.75       
C           -13.62      81.81       39.72       
H           -8.32       85.88       39.84       
H           -7.1        83.75       40.11       
H           -14.17993   82.12411    38.83914    
H           -14.16      82.08       40.66       
H           -13.43729   80.73565    39.74193    
C           -8.21       83.74       40.02       
C           -10.28      82.68       39.88       
C           -8.88       82.53       40.07       
H           22.24       31.9        20.7        
H           -10.56      85.98       40.71       
