472

C           87.11       73.69       60.7        
C           87.56       73.82       61.99       
S           87.01       72.06       60.3        
H           88.13       72.5        63.63       
H           87.59       74.73       62.53       
C           87.84       72.64       62.57       
C           87.75       71.56       61.8        
C           85.65       78.14       59.81       
C           85.87       76.84       59.41       
N           85.95       78.18       61.17       
C           86.33       76.85       61.56       
C           85.9        76.09       58.21       
O           85.75       76.34       57.07       
O           86.35       76.55       62.74       
C           86.52       73.78       57.54       
C           86.34       79.27       62.02       
H           87.42537    79.36932    62.03419    
H           85.96       79.0        63.03       
H           85.94       80.21       61.74       
H           86.3        72.8        57.91       
H           87.48335    73.6786     57.04022    
H           85.83       74.07       56.74       
N           86.42       74.79       58.57       
C           86.41       76.04       60.36       
C           86.69       74.78       59.9        
C           83.53       81.09       58.28       
C           83.2        79.85       57.69       
S           84.82       80.81       59.46       
H           83.7        77.65       58.11       
H           82.45       79.76       56.93       
C           83.86       78.73       58.3        
C           84.79       79.09       59.19       
C           82.13       85.13       57.29       
C           82.06       84.05       56.39       
C           82.75       84.79       58.45       
N           82.24       81.94       55.57       
N           81.57       82.77       54.78       
N           81.33       83.98       55.21       
C           81.19       82.32       53.43       
H           82.79       85.57       59.2        
H           83.72       83.39       59.83       
H           81.72486    81.3876     53.2493     
H           80.15       82.17       53.53       
H           81.48425    83.1257     52.75742    
C           83.32       83.54       58.78       
C           82.61       82.75       56.62       
C           83.21       82.44       57.86       
C           81.05       88.91       57.48       
C           80.96       88.48       56.19       
S           81.58       87.59       58.43       
H           81.16       86.6        54.93       
H           80.63       89.08       55.37       
C           81.25       87.1        55.94       
C           81.65       86.46       57.12       
C           80.54       92.27       60.84       
C           80.59       91.97       59.5        
N           80.89       91.16       61.52       
C           81.18       90.04       60.6        
C           80.43       92.54       58.18       
O           80.01       93.68       57.8        
O           81.59       88.97       60.95       
C           80.65       91.66       55.9        
C           80.26       90.75       62.8        
H           79.29394    90.29165    62.58845    
H           79.99       91.52       63.45       
H           81.01       90.11       63.36       
H           80.03       91.02       55.31       
H           81.64585    91.91075    55.53462    
H           80.07       92.55       55.73       
N           80.62       91.43       57.3        
C           80.88       90.56       59.32       
C           80.75       90.22       58.0        
C           79.23       95.91       61.73       
C           79.69       95.27       62.88       
S           79.47       94.85       60.41       
H           80.94       93.56       63.36       
H           79.69       95.58       63.94       
C           80.35       94.06       62.62       
C           80.25       93.59       61.36       
C           77.77       100.01      61.31       
C           77.96       99.43       62.55       
C           78.06       99.18       60.23       
N           78.39       97.81       64.03       
N           77.9        98.93       64.58       
N           77.67       99.89       63.77       
C           77.37       98.93       65.97       
H           77.96       99.56       59.2        
H           78.61       97.26       59.49       
H           77.68607    98.02301    66.48533    
H           77.71       99.85       66.4        
H           76.28318    99.00814    65.94159    
C           78.49       97.82       60.36       
C           78.41       98.07       62.71       
C           78.64       97.28       61.58       
C           76.52       103.61      60.07       
C           76.98       103.68      61.36       
S           76.84       101.96      59.51       
H           77.67       102.36      62.9        
H           77.11       104.63      61.89       
C           77.31       102.44      61.9        
C           77.33       101.41      61.09       
C           75.35       106.16      56.1        
C           75.14       105.89      57.45       
N           76.35       105.23      55.74       
C           76.75       104.37      56.77       
C           74.27       106.16      58.59       
O           73.26       106.85      58.71       
O           77.66       103.53      56.62       
C           73.82       105.11      60.78       
C           76.86       104.81      54.4        
H           77.69896    105.43384   54.09166    
H           77.06       103.78      54.35       
H           76.01       104.79      53.67       
H           74.26       105.38      61.74       
H           73.26194    104.17507   60.83073    
H           73.1        105.9       60.7        
N           74.7        105.28      59.63       
C           76.03       104.85      57.89       
C           75.91       104.66      59.28       
C           73.59       108.45      53.44       
C           73.06       108.67      54.72       
S           74.9        107.35      53.57       
H           73.25       107.98      56.76       
H           72.22       109.31      54.82       
C           73.71       107.96      55.78       
C           74.64       107.1       55.29       
C           71.41       109.22      49.6        
C           72.79       109.24      49.71       
C           70.8        108.98      50.79       
N           74.8        109.19      50.69       
N           74.89       109.32      49.36       
N           73.74       109.32      48.73       
C           76.13       109.17      48.6        
H           69.71       109.02      50.76       
H           70.82       108.53      52.93       
H           77.02051    109.3892    49.18911    
H           76.12       108.12      48.2        
H           76.10184    109.76136   47.6848     
C           71.43       108.79      52.06       
C           73.48       109.11      51.0        
C           72.83       108.85      52.18       
C           68.63       109.89      46.69       
C           69.89       110.1       46.19       
S           68.89       109.28      48.29       
H           71.98       110.33      46.84       
H           70.04       110.58      45.24       
C           70.96       109.99      47.14       
C           70.61       109.5       48.36       
C           63.93       110.3       46.92       
C           64.99       110.08      46.12       
N           64.38       110.88      48.07       
C           65.84       110.92      48.12       
C           65.48       109.52      44.86       
O           64.9        108.89      43.98       
O           66.44       111.24      49.16       
C           67.55       108.42      44.29       
C           63.75       111.85      48.91       
H           63.90807    112.84653   48.49764    
H           64.1        111.77      49.93       
H           62.68       111.75      48.89       
H           68.36       108.03      44.89       
H           67.81599    108.63      43.25402    
H           66.93       107.55      44.23       
N           66.91       109.48      44.97       
C           66.21       110.38      46.82       
C           67.34       110.03      46.1        
C           60.2        109.04      47.0        
C           60.56       109.04      45.68       
S           61.42       109.71      48.05       
H           62.52       109.5       44.62       
H           60.03       108.62      44.83       
C           61.95       109.45      45.58       
C           62.54       109.94      46.74       
C           56.41       107.73      48.86       
C           56.57       107.9       47.44       
C           57.5        108.01      49.52       
N           57.58       108.06      45.49       
N           56.35       107.58      45.35       
N           55.73       107.44      46.47       
C           55.69       107.44      44.07       
H           57.49       107.89      50.63       
H           59.51       108.71      49.62       
H           56.43917    107.29453   43.29174    
H           55.03       106.53      44.08       
H           55.13114    108.3571    43.88371    
C           58.71       108.56      48.93       
C           57.74       108.34      46.81       
C           58.88       108.72      47.54       
C           53.99       105.91      51.37       
C           53.93       105.21      50.22       
S           54.9        107.37      51.18       
H           54.73       105.39      48.13       
H           53.37       104.29      50.1        
C           54.67       105.84      49.18       
C           55.35       106.95      49.55       
C           53.06       102.93      54.99       
C           53.16       104.22      54.58       
N           53.44       102.03      54.02       
C           53.64       102.77      52.8        
C           53.03       105.66      54.95       
O           52.53       106.22      55.91       
O           53.96       102.22      51.76       
C           52.24       107.39      53.38       
C           53.29       100.56      54.02       
H           52.45632    100.24042   53.39474    
H           53.13       100.11      54.98       
H           54.1        100.08      53.59       
H           51.87       107.36      52.34       
H           52.64506    108.33979   53.72919    
H           51.28       107.23      54.0        
N           53.14       106.27      53.68       
C           53.48       104.15      53.18       
C           53.68       105.42      52.69       
C           52.13       101.85      58.75       
C           52.67       103.05      58.71       
S           52.21       101.18      57.18       
H           53.57       104.37      57.21       
H           52.6        103.65      59.53       
C           53.1        103.43      57.43       
C           52.9        102.61      56.42       
C           50.42       99.75       62.07       
C           51.75       100.3       62.12       
C           49.82       99.71       60.83       
N           53.55       101.29      61.32       
N           53.74       100.8       62.48       
N           52.65       100.32      63.09       
C           55.06       100.67      63.04       
H           48.86       99.23       60.63       
H           49.97       100.37      58.77       
H           55.76463    101.08859   62.32141    
H           54.98       101.11      64.02       
H           55.31545    99.61273    63.11096    
C           50.46       100.31      59.74       
C           52.3        101.02      60.99       
C           51.59       101.08      59.84       
C           48.64       97.43       64.71       
C           49.45       98.3        65.39       
S           48.83       97.74       63.0        
H           50.94       99.98       64.91       
H           49.5        98.22       66.46       
C           50.17       99.27       64.62       
C           49.85       99.11       63.26       
C           46.27       95.07       68.18       
C           46.54       95.12       66.86       
N           46.87       96.16       68.83       
C           47.58       96.96       67.92       
C           46.37       94.46       65.54       
O           45.89       93.4        65.16       
O           48.13       98.04       68.18       
C           46.71       95.18       63.19       
C           46.7        96.41       70.23       
H           46.30287    97.41702    70.35765    
H           47.68       96.3        70.68       
H           46.09       95.63       70.68       
H           47.58       95.31       62.55       
H           45.9089     95.84397    62.86523    
H           46.6        94.08       63.1        
N           47.07       95.33       64.59       
C           47.39       96.26       66.59       
C           47.72       96.41       65.27       
C           43.83       92.31       69.5        
C           44.98       91.76       69.03       
S           43.96       94.02       69.36       
H           46.9        92.36       68.13       
H           45.16       90.68       69.0        
C           45.95       92.66       68.52       
C           45.58       93.99       68.71       
C           40.07       90.17       70.08       
C           40.27       91.44       70.58       
C           41.25       89.55       69.58       
N           41.34       93.35       71.01       
N           40.07       93.38       71.44       
N           39.42       92.27       71.18       
C           39.52       94.64       71.84       
H           41.19       88.53       69.36       
H           43.23       89.65       69.17       
H           40.34485    95.34185    71.963      
H           38.84       94.99       71.07       
H           38.91263    94.54487    72.74008    
C           42.47       90.23       69.48       
C           41.53       92.15       70.42       
C           42.65       91.55       69.78       
C           36.3        88.78       70.52       
C           37.03       87.88       69.81       
S           37.33       90.13       70.98       
H           39.17       87.67       69.12       
H           36.67       86.85       69.58       
C           38.45       88.28       69.65       
C           38.76       89.49       70.17       
C           32.54       88.23       73.52       
C           33.02       88.19       72.19       
N           33.58       88.76       74.25       
C           34.74       88.94       73.47       
C           32.7        87.84       70.84       
O           31.65       87.53       70.3        
O           35.76       89.31       74.01       
C           34.07       87.64       68.69       
C           33.51       89.44       75.51       
H           33.80867    88.82132    76.35624    
H           34.21       90.31       75.54       
H           32.5        89.83       75.73       
H           34.92       87.02       68.49       
H           34.07748    88.53047    68.06143    
H           33.22       86.93       68.54       
N           33.94       88.01       70.07       
C           34.4        88.56       72.14       
C           34.95       88.53       70.89       
C           29.07       86.93       74.73       
C           28.88       87.65       73.54       
S           30.63       87.23       75.4        
H           30.22       88.43       72.09       
H           28.1        87.57       72.83       
C           30.15       88.04       73.1        
C           31.16       88.03       73.97       
C           25.85       84.84       76.88       
C           27.2        84.65       77.2        
C           25.69       85.75       75.85       
N           29.43       84.8        76.93       
N           29.02       83.93       77.86       
N           27.73       83.88       78.2        
C           29.94       82.98       78.48       
H           24.67       85.95       75.54       
H           26.42       86.88       74.22       
H           30.84856    82.89864    77.88334    
H           30.15       83.21       79.51       
H           29.53164    81.96948    78.49384    
C           26.71       86.35       75.11       
C           28.31       85.27       76.53       
C           28.09       86.12       75.4        
C           23.41       82.32       78.67       
C           22.79       83.52       78.6        
S           24.95       82.36       77.79       
H           23.45       85.63       77.99       
H           21.9        83.72       79.12       
C           23.61       84.55       77.98       
C           24.78       84.08       77.5        
C           20.54       79.95       81.77       
C           21.5        79.96       80.83       
N           20.28       81.31       82.02       
C           21.01       82.19       81.17       
C           22.34       79.02       80.21       
O           22.48       77.76       80.24       
O           20.91       83.39       81.14       
C           24.26       79.18       78.78       
C           19.26       81.91       82.91       
H           19.59254    81.70909    83.92841    
H           19.22       83.03       82.81       
H           18.29       81.49       82.69       
H           25.1        79.75       79.01       
H           24.1024     79.03611    77.71109    
H           24.32       78.22       79.23       
N           23.11       79.89       79.32       
C           21.83       81.28       80.32       
C           22.82       81.2        79.41       
C           19.84       76.84       83.97       
C           18.7        77.61       83.89       
S           21.25       77.78       83.48       
H           18.04       79.31       82.69       
H           17.71       77.31       84.25       
C           18.9        78.65       83.01       
C           20.22       78.9        82.68       
C           20.66       72.9        85.9        
C           21.09       73.25       84.58       
C           20.11       74.04       86.5        
N           21.36       74.42       82.69       
N           21.87       73.2        82.67       
N           21.78       72.47       83.71       
C           22.19       72.62       81.39       
H           19.66       73.94       87.5        
H           19.19       76.09       86.36       
H           22.62648    73.38032    80.74232    
H           22.87       71.74       81.41       
H           21.26035    72.28194    80.93222    
C           19.82       75.3        85.89       
C           20.83       74.5        83.96       
C           20.16       75.56       84.59       
C           20.55       69.73       88.29       
C           21.41       69.5        87.26       
S           19.98       71.42       88.15       
H           22.32       70.6        85.59       
H           21.85       68.53       87.06       
C           21.68       70.62       86.45       
C           20.88       71.66       86.67       
C           19.74       65.46       90.13       
C           19.49       66.8        90.16       
N           20.62       65.2        89.08       
C           21.07       66.41       88.52       
C           18.61       67.76       90.8        
O           17.66       67.66       91.54       
O           21.88       66.39       87.61       
C           18.78       70.23       91.02       
C           21.17       63.99       88.47       
H           20.88988    63.83198    87.42853    
H           21.01       63.11       88.98       
H           22.24       64.09       88.51       
H           18.54       71.07       90.31       
H           19.55446    70.40927    91.76577    
H           17.85       70.06       91.52       
N           19.08       69.02       90.17       
C           20.35       67.49       89.23       
C           20.15       68.82       89.31       
C           18.43       62.35       92.27       
C           18.28       63.51       92.95       
S           19.13       62.77       90.72       
H           18.56       65.77       92.58       
H           17.91       63.51       94.0        
C           18.69       64.68       92.22       
C           19.34       64.47       91.04       
C           16.92       58.32       92.14       
C           18.33       58.56       91.86       
C           16.2        59.35       92.63       
N           20.07       59.87       91.69       
N           20.33       58.64       91.31       
N           19.3        57.81       91.33       
C           21.68       58.07       91.08       
H           15.13       59.23       92.95       
H           16.06       61.49       92.9        
H           22.4858     58.78702    91.23706    
H           21.8        57.36       91.85       
H           21.68691    57.65569    90.07184    
C           16.69       60.67       92.73       
C           18.81       59.87       92.12       
C           17.98       60.96       92.48       
C           14.81       55.08       91.7        
C           16.16       54.64       91.73       
S           14.7        56.84       91.86       
H           18.13       55.56       92.05       
H           16.43       53.67       91.47       
C           17.01       55.72       91.98       
C           16.37       56.99       92.02       
C           12.75       51.22       89.7        
C           12.62       52.34       90.33       
N           14.08       51.09       89.49       
C           14.92       52.11       90.06       
C           11.64       53.25       90.81       
O           10.42       53.17       90.93       
O           16.12       52.14       89.77       
C           11.61       55.27       92.23       
C           14.74       50.25       88.48       
H           15.34145    49.47873    88.96116    
H           15.34       50.85       87.82       
H           14.0        49.77       87.8        
H           12.0        56.27       92.11       
H           11.54509    54.99594    93.28298    
H           10.6        55.34       91.74       
N           12.41       54.28       91.48       
C           13.9        52.94       90.66       
C           13.74       54.19       91.28       
C           9.57        49.93       87.79       
C           10.51       48.95       87.81       
S           10.26       51.34       88.48       
H           12.6        48.66       88.71       
H           10.27       47.91       87.46       
C           11.76       49.27       88.5        
C           11.72       50.56       89.02       
C           5.7         50.16       85.68       
C           6.43        48.94       85.73       
C           6.28        51.15       86.38       
N           8.02        47.5        86.18       
N           6.99        46.94       85.54       
N           5.96        47.72       85.21       
C           6.67        45.54       85.59       
H           5.68        52.08       86.4        
H           7.9         51.96       87.51       
H           7.03702     45.05299    84.68656    
H           5.58        45.48       85.63       
H           7.04959     45.08879    86.50674    
C           7.56        51.03       86.99       
C           7.69        48.78       86.36       
C           8.31        49.92       87.04       
H           88.51       70.81       61.83       
H           4.62        50.03       85.81       
