472

C           85.87       79.72       80.44       
C           85.77       80.58       79.35       
S           85.57       78.11       79.82       
H           85.41       80.58       77.19       
H           85.66       81.64       79.33       
C           85.56       80.01       78.14       
C           85.47       78.63       78.11       
C           85.78       82.38       84.36       
C           86.0        81.15       83.79       
N           85.39       83.27       83.34       
C           85.33       82.58       82.06       
C           86.24       79.81       84.2        
O           86.3        79.25       85.27       
O           84.95       83.15       81.05       
C           86.52       77.74       82.87       
C           84.84       84.65       83.29       
H           83.75527    84.62901    83.18503    
H           85.17       85.14       82.37       
H           85.14       85.35       84.04       
H           87.18       77.52       82.0        
H           85.6311     77.10917    82.87       
H           87.19       77.47       83.74       
N           86.25       79.14       82.89       
C           85.81       81.22       82.38       
C           85.99       80.05       81.82       
C           85.55       83.95       87.99       
C           85.79       82.65       88.13       
S           85.69       84.38       86.33       
H           86.04       80.89       86.85       
H           85.87       82.14       89.09       
C           85.92       81.94       86.91       
C           85.8        82.75       85.75       
C           84.33       87.26       90.86       
C           84.87       85.96       91.27       
C           84.35       87.37       89.49       
N           85.51       83.76       91.12       
N           85.28       84.15       92.32       
N           84.99       85.42       92.52       
C           85.79       83.33       93.47       
H           84.18       88.33       88.98       
H           84.63       86.5        87.63       
H           86.17466    82.41643    93.01665    
H           86.63       83.9        93.94       
H           84.98276    83.07283    94.1558     
C           84.75       86.29       88.65       
C           85.21       84.87       90.4        
C           85.16       85.01       89.01       
C           83.03       90.47       92.68       
C           83.7        89.74       93.65       
S           83.12       89.74       91.14       
H           84.83       87.85       93.57       
H           83.84       90.07       94.65       
C           84.25       88.54       93.09       
C           84.02       88.4        91.74       
C           80.46       94.18       91.22       
C           80.81       93.36       92.24       
N           81.36       94.02       90.22       
C           82.2        92.88       90.53       
C           80.54       92.97       93.64       
O           79.81       93.37       94.55       
O           82.95       92.47       89.66       
C           80.91       90.98       94.97       
C           81.94       95.09       89.47       
H           82.83316    95.35228    90.03708    
H           81.24       95.91       89.18       
H           82.19       94.81       88.5        
H           81.58       90.22       95.3        
H           80.01756    90.44022    94.65333    
H           80.73       91.6        95.8        
N           81.37       91.89       93.95       
C           81.9        92.49       91.88       
C           82.19       91.61       92.85       
C           77.49       96.67       90.56       
C           77.47       96.35       91.85       
S           78.94       96.13       89.8        
H           78.65       95.09       93.27       
H           76.59       96.68       92.41       
C           78.62       95.52       92.3        
C           79.4        95.21       91.21       
C           74.53       99.27       88.51       
C           75.47       98.39       87.78       
C           74.61       99.14       89.83       
N           77.14       97.0        87.43       
N           76.65       97.47       86.37       
N           75.61       98.29       86.49       
C           76.94       96.82       85.06       
H           73.98       99.78       90.44       
H           75.65       98.43       91.53       
H           77.86155    96.2449     85.15008    
H           76.09       96.22       84.75       
H           77.045      97.55501    84.26198    
C           75.61       98.4        90.47       
C           76.41       97.57       88.45       
C           76.52       97.56       89.82       
C           71.77       101.76      87.33       
C           72.13       101.0       86.28       
S           72.84       101.31      88.66       
H           73.41       99.3        85.86       
H           71.76       101.16      85.26       
C           73.1        100.0       86.59       
C           73.57       100.01      87.84       
C           68.85       104.95      85.31       
C           69.45       104.45      86.43       
N           68.92       103.92      84.37       
C           69.76       102.85      84.85       
C           69.73       104.86      87.83       
O           69.42       105.86      88.5        
O           69.94       101.9       84.12       
C           71.54       104.17      89.45       
C           68.31       103.73      83.05       
H           67.24335    103.53221   83.15596    
H           68.45       104.66      82.52       
H           68.88       102.97      82.44       
H           72.53       103.8       89.32       
H           71.0427     103.92826   90.38934    
H           71.64       105.26      89.42       
N           70.72       103.87      88.29       
C           70.13       103.25      86.21       
C           70.87       102.87      87.31       
C           68.22       108.83      85.1        
C           67.42       108.21      84.2        
S           69.2        107.6       85.93       
H           66.86       106.1       83.69       
H           66.86       108.77      83.47       
C           67.4        106.84      84.31       
C           68.35       106.31      85.19       
C           69.39       113.1       85.63       
C           69.37       112.5       84.32       
C           69.01       112.26      86.67       
N           68.85       110.85      82.9        
N           69.31       111.95      82.32       
N           69.71       112.95      83.09       
C           69.64       112.05      80.98       
H           69.07       112.62      87.71       
H           68.42       110.21      87.33       
H           69.58147    111.04769   80.55567    
H           68.9        112.6       80.47       
H           70.60771    112.5483    80.92223    
C           68.66       110.85      86.46       
C           68.99       111.11      84.17       
C           68.63       110.24      85.25       
C           70.91       116.74      85.85       
C           70.32       116.43      87.0        
S           70.69       115.37      84.78       
H           69.24       114.68      87.92       
H           70.34       117.03      87.84       
C           69.75       115.1       87.03       
C           69.81       114.45      85.91       
C           72.75       121.14      86.56       
C           72.43       120.09      85.66       
N           72.34       120.74      87.81       
C           71.89       119.36      87.8        
C           72.34       119.76      84.28       
O           72.67       120.32      83.25       
O           71.7        118.64      88.83       
C           72.05       117.71      82.96       
C           71.76       121.55      88.87       
H           70.68146    121.40901   88.94049    
H           72.08       122.61      88.78       
H           72.29       121.24      89.75       
H           71.18       117.06      82.76       
H           73.00115    117.17764   82.96       
H           72.1        118.37      82.17       
N           71.83       118.4       84.23       
C           71.94       118.96      86.38       
C           71.67       117.92      85.51       
C           74.84       124.5       86.27       
C           74.52       124.03      85.04       
S           74.23       123.35      87.43       
H           73.31       122.38      84.1        
H           74.78       124.57      84.13       
C           73.73       122.81      84.99       
C           73.41       122.39      86.23       
C           78.03       127.31      87.22       
C           77.08       126.86      88.24       
C           77.66       126.93      85.97       
N           75.37       125.68      89.13       
N           75.98       126.43      90.01       
N           77.09       127.05      89.6        
C           75.35       126.57      91.35       
H           78.24       127.26      85.14       
H           76.34       125.83      84.72       
H           74.41541    126.00924   91.33615    
H           76.0        126.27      92.14       
H           75.13975    127.61423   91.58127    
C           76.57       126.08      85.75       
C           76.0        125.96      87.94       
C           75.73       125.57      86.67       
C           81.61       128.93      87.07       
C           81.03       129.3       88.26       
S           80.52       127.86      86.31       
H           78.93       129.05      89.29       
H           81.5        129.84      89.08       
C           79.59       128.89      88.45       
C           79.2        128.22      87.39       
C           86.08       130.52      87.28       
C           85.15       129.82      86.63       
N           85.51       131.05      88.41       
C           84.12       130.75      88.47       
C           84.9        129.16      85.29       
O           85.52       129.13      84.31       
O           83.34       131.0       89.39       
C           83.02       127.72      84.51       
C           86.12       131.22      89.69       
H           86.42937    130.26375   90.11187    
H           85.45       131.7       90.37       
H           87.02       131.86      89.58       
H           82.01       127.93      84.25       
H           83.22161    126.73357   84.92761    
H           83.53       127.88      83.56       
N           83.55       128.7       85.43       
C           83.87       129.87      87.29       
C           83.0        129.14      86.65       
C           89.95       131.15      86.46       
C           89.39       130.19      85.72       
S           88.74       131.66      87.6        
H           87.53       129.17      85.3        
H           89.99       129.67      84.95       
C           88.03       129.94      85.89       
C           87.5        130.64      86.89       
C           94.17       132.6       87.05       
C           93.79       131.7       86.02       
C           93.06       133.14      87.67       
N           92.47       130.34      84.85       
N           93.7        130.34      84.4        
N           94.54       131.09      85.05       
C           94.11       129.47      83.36       
H           93.28       133.91      88.42       
H           91.0        133.13      88.05       
H           93.25103    128.89976   83.00631    
H           94.54       130.13      82.55       
H           94.92167    128.78649   83.6092     
C           91.72       132.65      87.47       
C           92.44       131.22      85.83       
C           91.34       131.68      86.58       
C           97.54       134.51      88.12       
C           97.7        133.91      86.89       
S           95.95       133.96      88.65       
H           96.66       132.62      85.46       
H           98.68       133.96      86.5        
C           96.61       133.15      86.37       
C           95.5        133.11      87.17       
C           99.09       136.81      92.0        
C           99.37       136.22      90.82       
N           97.73       136.92      92.06       
C           97.13       136.18      91.0        
C           100.48      135.96      89.95       
O           101.66      136.23      89.98       
O           95.9        136.06      90.79       
C           100.57      135.71      87.5        
C           96.92       137.28      93.18       
H           96.74104    136.42649   93.8339     
H           95.97       137.67      92.83       
H           97.41       138.1       93.67       
H           99.75       135.83      86.74       
H           101.36069   135.00328   87.2481     
H           100.93      136.71      87.45       
N           99.83       135.46      88.75       
C           98.19       135.89      90.12       
C           98.48       135.22      88.94       
C           101.28      137.78      95.13       
C           101.98      136.95      94.33       
S           99.77       138.21      94.37       
H           101.78      135.93      92.4        
H           102.94      136.5       94.68       
C           101.3       136.59      93.17       
C           100.04      137.05      93.1        
C           101.98      139.08      99.34       
C           102.48      137.82      98.88       
C           101.36      139.77      98.35       
N           102.8       136.14      97.48       
N           103.22      135.86      98.73       
N           103.12      136.89      99.56       
C           103.3       134.5       99.24       
H           100.97      140.78      98.55       
H           100.7       140.01      96.3        
H           103.4843    133.78407   98.43901    
H           104.22      134.5       99.87       
H           102.44336   134.24451   99.86369    
C           101.25      139.36      96.99       
C           102.27      137.39      97.54       
C           101.54      138.14      96.51       
C           102.52      139.94      103.22      
C           102.02      141.04      102.6       
S           102.81      138.72      102.02      
H           101.15      141.64      100.69      
H           101.75      141.91      103.19      
C           101.74      140.85      101.2       
C           102.14      139.63      100.67      
C           103.72      137.83      107.26      
C           103.66      138.98      106.53      
N           103.11      136.85      106.44      
C           102.53      137.46      105.3       
C           104.04      140.42      106.55      
O           104.66      141.06      107.47      
O           101.87      136.73      104.53      
C           103.85      142.3       104.92      
C           103.52      135.48      106.29      
H           102.7873    134.81071   106.74089   
H           103.53      135.18      105.24      
H           104.55      135.37      106.7       
H           102.95      142.92      104.67      
H           104.66466   142.30696   104.19586   
H           104.28      142.71      105.82      
N           103.47      140.96      105.34      
C           102.89      138.86      105.36      
C           102.88      139.9       104.59      
C           105.25      136.73      110.7       
C           105.82      137.93      110.4       
S           104.06      136.27      109.58      
H           105.47      139.44      108.75      
H           106.6       138.37      110.95      
C           105.27      138.48      109.16      
C           104.41      137.59      108.53      
C           106.23      133.32      113.31      
C           107.27      134.16      112.77      
C           105.0       133.58      112.77      
N           108.09      135.99      111.71      
N           109.0       135.31      112.4       
N           108.52      134.32      113.12      
C           110.38      135.74      112.69      
H           104.07      133.02      112.99      
H           103.66      134.87      111.69      
H           110.77408   136.27022   111.82302   
H           110.46      136.36      113.6       
H           111.00959   134.85574   112.78904   
C           104.69      134.74      111.98      
C           106.96      135.34      112.03      
C           105.67      135.66      111.61      
C           106.55      129.8       115.2       
C           107.71      130.43      115.3       
S           105.41      130.87      114.4       
H           108.53      132.49      114.79      
H           108.58      130.03      115.79      
C           107.72      131.79      114.79      
C           106.53      132.16      114.21      
C           106.83      125.82      117.86      
C           106.22      126.49      116.81      
N           108.07      126.38      118.0       
C           108.16      127.66      117.27      
C           105.05      126.41      115.93      
O           104.11      125.64      115.69      
O           109.11      128.42      117.24      
C           104.39      127.84      114.06      
C           109.25      125.96      118.72      
H           109.456     124.93002   118.42877   
H           110.11      126.54      118.46      
H           109.09      126.06      119.84      
H           104.83      128.37      113.28      
H           103.43771   128.36132   114.15731   
H           104.24      126.85      113.75      
N           105.17      127.67      115.27      
C           106.91      127.74      116.51      
C           106.21      128.5       115.68      
C           105.92      122.89      120.32      
C           105.15      122.76      119.18      
S           107.04      124.12      120.18      
H           104.57      124.12      117.51      
H           104.4       121.94      118.99      
C           105.24      123.9       118.38      
C           106.39      124.68      118.63      
C           105.97      121.29      124.42      
C           104.89      121.05      123.51      
C           106.98      121.95      123.81      
N           103.7       121.36      121.7       
N           102.98      120.73      122.63      
N           103.65      120.55      123.74      
C           101.5       120.83      122.61      
H           107.8       122.26      124.4       
H           107.85      122.87      122.09      
H           101.08942   120.5256    121.64726   
H           101.11      120.19      123.4       
H           101.1263    121.84038   122.77609   
C           107.03      122.37      122.44      
C           104.93      121.5       122.18      
C           105.99      122.2       121.58      
C           105.35      121.61      128.26      
C           106.7       121.2       128.08      
S           104.61      121.73      126.71      
H           108.01      120.51      126.44      
H           107.38      121.12      128.92      
C           107.06      120.92      126.73      
C           106.0       121.12      125.9       
C           102.09      124.12      130.61      
C           103.45      123.95      130.33      
N           101.33      123.11      129.97      
C           102.26      122.17      129.33      
C           104.77      124.4       130.58      
O           105.27      125.24      131.27      
O           101.91      121.13      128.81      
C           107.05      123.54      130.15      
C           100.11      123.29      129.17      
H           100.32208   123.59398   128.14495   
H           99.3        123.89      129.62      
H           99.77       122.26      129.02      
H           107.59      123.28      129.23      
H           107.26687   123.0153    131.08046   
H           107.22      124.57      130.38      
N           105.62      123.48      129.91      
C           103.56      122.77      129.47      
C           104.91      122.5       129.29      
C           100.16      126.88      132.82      
C           101.55      127.12      132.72      
S           99.88       125.42      131.82      
H           103.33      126.24      131.99      
H           102.05      128.05      133.12      
C           102.25      126.19      131.98      
C           101.54      125.19      131.39      
C           97.18       129.41      134.92      
C           96.86       128.37      134.08      
C           98.58       129.53      135.02      
N           97.06       126.64      132.55      
N           95.76       126.9       132.94      
N           95.54       127.93      133.8       
C           94.56       126.19      132.48      
H           98.96       130.16      135.77      
H           100.6       128.82      134.59      
H           94.81156    125.59343   131.60312   
H           94.31       125.49      133.31      
H           93.74486    126.89788   132.32984   
C           99.51       128.65      134.45      
C           97.77       127.52      133.42      
C           99.18       127.68      133.54      
C           94.17       131.87      136.27      
C           95.39       132.33      136.76      
S           94.45       130.36      135.44      
H           97.49       131.69      136.57      
H           95.51       133.31      137.22      
C           96.49       131.48      136.36      
C           96.19       130.37      135.56      
C           90.79       134.29      138.84      
C           91.17       133.55      137.72      
N           91.87       134.23      139.73      
C           93.04       133.63      139.05      
C           90.68       133.25      136.43      
O           89.74       133.66      135.78      
O           94.2        133.62      139.45      
C           91.48       131.69      134.58      
C           91.95       134.72      141.13      
H           92.50925    134.08812   141.81998   
H           90.95       134.64      141.63      
H           92.22       135.77      141.11      
H           91.77       130.68      134.74      
H           91.92378    132.12662   133.68528   
H           90.36       131.67      134.55      
N           91.77       132.5       135.79      
C           92.5        133.11      137.8       
C           92.87       132.41      136.64      
C           87.49       136.35      139.94      
C           87.25       135.56      138.91      
S           89.21       136.26      140.22      
H           88.18       133.88      137.73      
H           86.21       135.31      138.63      
C           88.36       134.68      138.48      
C           89.53       134.94      139.12      
C           85.19       139.39      142.02      
C           84.57       138.39      141.18      
C           86.5        139.17      142.16      
N           84.53       136.7       139.67      
N           83.29       137.25      139.94      
N           83.29       138.24      140.79      
C           82.02       136.65      139.47      
H           87.11       139.92      142.67      
H           88.35       138.32      141.45      
H           82.18045    135.64355   139.08346   
H           81.73       137.32      138.7       
H           81.25656    136.6644    140.24785   
C           87.27       138.21      141.46      
C           85.32       137.43      140.44      
C           86.67       137.29      140.66      
H           85.91       78.06       77.31       
H           84.77       140.39      142.16      
