472

C           19.94       89.85       50.79       
C           19.78       91.17       51.12       
S           20.28       89.73       49.1        
H           20.0        93.1        50.09       
H           19.42       91.49       52.09       
C           20.05       92.02       50.02       
C           20.26       91.4        48.81       
C           18.62       87.32       54.71       
C           19.11       87.4        53.45       
N           18.33       88.63       55.11       
C           18.7        89.58       54.11       
C           19.58       86.45       52.43       
O           19.83       85.29       52.51       
O           18.46       90.85       54.18       
C           21.04       86.85       50.52       
C           18.02       89.13       56.44       
H           18.94335    89.52172    56.8667     
H           17.73       88.37       57.02       
H           17.23       89.89       56.55       
H           21.68       87.64       50.12       
H           20.711      86.2892     49.64515    
H           21.65       86.33       51.24       
N           20.05       87.38       51.44       
C           19.32       88.77       52.98       
C           19.79       88.74       51.72       
C           16.58       84.25       56.15       
C           17.29       84.91       57.17       
S           17.15       84.95       54.66       
H           18.82       86.51       57.41       
H           17.18       84.62       58.21       
C           18.16       85.97       56.71       
C           18.28       86.05       55.35       
C           12.95       81.78       56.13       
C           13.42       82.52       57.24       
C           13.81       81.85       55.09       
N           14.74       83.82       58.62       
N           13.68       83.25       59.17       
N           12.75       82.77       58.38       
C           13.36       83.57       60.54       
H           13.57       81.3        54.2        
H           15.64       82.74       54.13       
H           14.24995    83.95541    61.03753    
H           12.5        84.25       60.54       
H           12.99779    82.68224    61.05845    
C           15.01       82.66       55.07       
C           14.71       83.25       57.38       
C           15.47       83.36       56.15       
C           9.71        79.91       55.1        
C           9.5         80.44       56.33       
S           11.31       80.14       54.62       
H           10.66       81.59       57.9        
H           8.5         80.53       56.76       
C           10.64       81.06       56.94       
C           11.65       81.06       56.06       
C           5.53        77.61       54.49       
C           6.63        78.18       53.88       
N           5.57        77.93       55.85       
C           6.91        78.46       56.25       
C           7.29        78.43       52.63       
O           6.93        78.21       51.46       
O           7.37        78.57       57.35       
C           9.54        79.19       51.89       
C           4.46        77.99       56.73       
H           4.49612     78.86411    57.38017    
H           4.31        77.18       57.37       
H           3.51        78.14       56.15       
H           10.53       79.01       52.28       
H           9.39878     80.17112    51.43661    
H           9.4         78.4        51.11       
N           8.62        78.88       53.0        
C           7.6         78.62       54.9        
C           8.75        79.15       54.37       
C           2.57        75.23       53.57       
C           3.0         75.8        52.4        
S           3.49        75.8        54.84       
H           4.58        77.16       51.73       
H           2.54        75.45       51.47       
C           4.04        76.75       52.48       
C           4.43        76.87       53.84       
C           -0.1        71.96       54.46       
C           0.17        72.35       53.13       
C           0.47        72.76       55.39       
N           0.95        73.62       51.42       
N           0.37        72.48       51.04       
N           -0.19       71.75       52.0        
C           -0.43       72.5        49.81       
H           0.32        72.51       56.43       
H           1.88        74.2        55.89       
H           0.18145     72.86131    48.98315    
H           -0.76       71.48       49.58       
H           -1.32383    73.1081     49.9492     
C           1.33        73.84       55.07       
C           0.93        73.48       52.8        
C           1.58        74.29       53.82       
C           -2.34       69.22       56.37       
C           -2.48       69.06       55.01       
S           -1.13       70.48       56.64       
H           -1.56       69.95       53.19       
H           -3.18       68.3        54.53       
C           -1.71       69.98       54.23       
C           -0.93       70.83       54.96       
C           -4.42       65.29       58.23       
C           -3.91       66.53       58.44       
N           -4.5        65.09       56.86       
C           -3.86       66.14       56.13       
C           -3.79       67.59       59.4        
O           -4.09       67.74       60.53       
O           -3.53       66.01       54.96       
C           -2.97       69.93       59.21       
C           -5.26       64.04       56.18       
H           -6.25311    64.40702    55.92093    
H           -4.72       63.68       55.27       
H           -5.3        63.06       56.7        
H           -3.26       70.81       58.59       
H           -1.99197    70.00796    59.68484    
H           -3.63       69.89       60.03       
N           -3.23       68.66       58.6        
C           -3.46       67.07       57.19       
C           -2.83       68.25       57.37       
C           -5.4        62.39       60.7        
C           -5.61       63.6        61.34       
S           -4.86       62.68       59.11       
H           -5.38       65.82       60.83       
H           -5.95       63.67       62.31       
C           -5.25       64.76       60.56       
C           -4.93       64.39       59.24       
C           -5.73       58.33       62.36       
C           -5.68       59.41       63.23       
C           -5.74       58.63       60.96       
N           -5.6        61.64       63.63       
N           -5.72       60.82       64.75       
N           -5.74       59.5        64.51       
C           -5.28       61.28       66.03       
H           -5.7        57.87       60.23       
H           -5.79       60.07       59.34       
H           -5.77124    62.2344     66.21948    
H           -5.48       60.5        66.77       
H           -4.21432    61.50172    66.08722    
C           -5.63       59.9        60.46       
C           -5.56       60.72       62.67       
C           -5.46       61.04       61.27       
C           -7.07       54.65       62.77       
C           -6.22       54.94       63.82       
S           -7.08       56.02       61.67       
H           -5.28       56.71       64.61       
H           -6.07       54.25       64.68       
C           -5.76       56.29       63.79       
C           -5.93       56.95       62.64       
C           -9.29       50.73       64.27       
C           -9.08       51.61       63.19       
N           -9.01       51.34       65.45       
C           -8.4        52.59       65.18       
C           -9.15       51.71       61.75       
O           -9.52       51.0        60.86       
O           -7.95       53.29       66.03       
C           -7.88       53.11       60.15       
C           -9.51       51.21       66.83       
H           -10.38553   51.84153    66.98071    
H           -8.67       51.42       67.55       
H           -9.72       50.17       67.09       
H           -6.84       53.46       60.23       
H           -8.41892    53.70718    59.41445    
H           -7.75       52.12       59.79       
N           -8.42       52.95       61.53       
C           -8.34       52.67       63.73       
C           -7.97       53.5        62.69       
C           -10.96      47.08       64.53       
C           -11.33      47.75       63.37       
S           -9.84       48.16       65.32       
H           -10.84      49.66       62.28       
H           -11.83      47.29       62.54       
C           -10.76      49.07       63.19       
C           -10.07      49.51       64.26       
C           -11.45      43.02       65.88       
C           -11.51      44.02       66.81       
C           -10.94      43.38       64.62       
N           -11.37      46.11       67.57       
N           -11.66      45.23       68.57       
N           -11.75      44.0        68.18       
C           -11.48      45.51       69.93       
H           -10.78      42.67       63.85       
H           -10.48      44.99       63.18       
H           -11.45066   46.59543    70.02534    
H           -12.31      45.06       70.45       
H           -10.56466   45.08093    70.33761    
C           -10.98      44.74       64.18       
C           -11.37      45.39       66.42       
C           -11.17      45.77       65.06       
C           -12.52      39.34       66.87       
C           -12.13      39.34       65.58       
S           -12.1       40.86       67.6        
H           -11.59      40.98       64.03       
H           -12.44      38.48       64.94       
C           -11.74      40.65       65.09       
C           -11.71      41.59       66.07       
C           -14.62      37.33       70.66       
C           -13.85      37.17       69.52       
N           -14.75      38.71       70.91       
C           -14.29      39.44       69.77       
C           -13.24      36.13       68.71       
O           -13.19      34.89       68.73       
O           -14.44      40.64       69.69       
C           -11.93      36.13       66.55       
C           -14.73      39.33       72.22       
H           -13.78495   39.85117    72.37288    
H           -14.85      38.6        73.01       
H           -15.53      40.03       72.4        
H           -11.07      36.64       66.23       
H           -12.64598   35.87225    65.76959    
H           -11.58      35.19       66.92       
N           -12.69      36.86       67.61       
C           -13.61      38.4        68.9        
C           -13.03      38.25       67.68       
C           -15.14      34.14       72.99       
C           -16.13      35.08       73.22       
S           -14.08      34.75       71.71       
H           -16.56      37.17       72.71       
H           -16.95      34.93       73.97       
C           -15.91      36.33       72.58       
C           -14.93      36.28       71.59       
C           -14.83      30.2        74.81       
C           -16.05      30.72       74.43       
C           -13.69      30.98       74.5        
N           -17.46      32.33       73.76       
N           -18.07      31.21       74.09       
N           -17.28      30.24       74.61       
C           -19.49      31.02       73.96       
H           -12.67      30.59       74.7        
H           -12.84      32.8        73.76       
H           -19.91312   31.75149    73.27153    
H           -19.61      30.03       73.6        
H           -19.93091   31.06978    74.9556     
C           -13.79      32.26       73.93       
C           -16.13      32.04       73.9        
C           -14.98      32.83       73.6        
C           -13.69      26.92       76.58       
C           -15.1       26.92       76.59       
S           -13.09      28.2        75.6        
H           -16.62      28.47       76.05       
H           -15.67      26.15       76.99       
C           -15.58      28.19       76.1        
C           -14.66      28.97       75.52       
C           -12.52      22.43       77.81       
C           -12.22      23.75       77.69       
N           -13.86      22.32       77.41       
C           -14.4       23.55       76.85       
C           -11.1       24.65       77.83       
O           -9.92       24.58       78.24       
O           -15.55      23.74       76.43       
C           -10.95      27.16       77.86       
C           -14.71      21.24       77.58       
H           -14.93011   20.9245     76.56014    
H           -15.61      21.45       78.14       
H           -14.23      20.39       78.09       
H           -11.67      27.95       78.11       
H           -10.21      27.67728    77.24932    
H           -10.47      26.78       78.84       
N           -11.58      25.94       77.28       
C           -13.27      24.53       77.08       
C           -12.87      25.84       76.89       
C           -9.81       20.31       79.64       
C           -10.67      19.45       79.02       
S           -10.51      21.92       79.58       
H           -12.25      19.53       77.58       
H           -10.48      18.4        78.99       
C           -11.69      20.08       78.29       
C           -11.7       21.48       78.41       
C           -6.03       19.6        81.74       
C           -6.95       18.5        81.5        
C           -6.44       20.79       81.31       
N           -8.96       17.69       81.05       
N           -8.13       16.8        81.64       
N           -6.87       17.16       81.89       
C           -8.65       15.6        82.33       
H           -5.89       21.69       81.61       
H           -7.82       22.06       80.27       
H           -9.73578    15.60683    82.2344     
H           -8.21       14.69       81.81       
H           -8.31429    15.59254    83.36699    
C           -7.62       21.05       80.6        
C           -8.17       18.75       80.78       
C           -8.57       20.04       80.33       
C           -2.6        19.88       83.73       
C           -2.78       18.6        83.28       
S           -3.94       20.79       83.24       
H           -4.26       17.31       82.23       
H           -2.19       17.73       83.64       
C           -4.03       18.35       82.58       
C           -4.76       19.44       82.38       
C           1.79        19.55       85.63       
C           0.78        20.39       85.2        
N           1.52        18.36       85.05       
C           0.25        18.22       84.51       
C           0.34        21.72       85.24       
O           0.88        22.77       85.64       
O           -0.02       17.22       83.85       
C           -1.82       22.83       84.98       
C           2.34        17.2        84.88       
H           2.1408      16.45298    85.64836    
H           2.3         16.71       83.92       
H           3.34        17.58       84.85       
H           -2.72       22.53       85.35       
H           -1.95482    23.497      84.12851    
H           -1.3        23.33       85.82       
N           -0.99       21.67       84.7        
C           -0.26       19.58       84.56       
C           -1.32       20.37       84.29       
C           4.98        19.8        87.89       
C           4.66        21.03       87.41       
S           4.09        18.69       86.95       
H           3.06        22.09       86.37       
H           5.22        21.91       87.66       
C           3.44        21.11       86.67       
C           3.05        19.87       86.27       
C           8.68        18.19       89.62       
C           7.46        17.55       89.79       
C           8.58        19.34       89.02       
N           5.28        17.17       89.65       
N           5.96        16.15       90.16       
N           7.25        16.32       90.38       
C           5.09        15.14       90.79       
H           9.49        19.88       88.89       
H           7.49        20.88       88.07       
H           4.0464      15.45163    90.83348    
H           5.39        14.2        90.34       
H           5.37492     14.96467    91.82739    
C           7.4         19.98       88.6        
C           6.25        18.11       89.37       
C           6.17        19.37       88.67       
C           12.0        16.32       89.14       
C           12.32       17.44       89.91       
S           10.29       16.21       88.91       
H           11.2        19.09       90.98       
H           13.35       17.78       90.14       
C           11.16       18.19       90.31       
C           9.97        17.62       89.85       
C           13.97       12.91       86.37       
C           13.98       13.67       87.55       
N           12.92       13.47       85.59       
C           12.18       14.47       86.34       
C           14.84       13.94       88.71       
O           15.92       13.5        89.07       
O           11.23       15.09       85.87       
C           14.5        15.27       90.79       
C           12.41       13.13       84.32       
H           11.84143    12.21154    84.46579    
H           11.81       13.95       83.81       
H           13.26       12.99       83.69       
H           13.61       15.39       91.38       
H           15.22758    16.06178    90.96833    
H           14.91       14.3        91.18       
N           14.13       14.98       89.44       
C           12.93       14.67       87.59       
C           13.04       15.41       88.7        
C           16.52       10.24       84.86       
C           16.86       10.5        86.12       
S           15.04       11.11       84.51       
H           16.09       11.54       87.81       
H           17.61       10.03       86.72       
C           15.96       11.31       86.78       
C           14.95       11.87       86.05       
C           18.96       8.5         81.65       
C           17.6        8.9         81.41       
C           19.37       8.71        82.93       
N           15.62       9.78        81.8        
N           15.71       9.46        80.54       
N           16.92       8.99        80.22       
C           14.78       9.97        79.57       
H           20.39       8.43        83.18       
H           19.02       9.34        84.97       
H           13.95054    10.53235    79.99879    
H           15.31       10.62       78.93       
H           14.26659    9.14854     79.07028    
C           18.53       9.29        83.98       
C           16.8        9.48        82.41       
C           17.25       9.74        83.74       
C           21.84       7.74        79.02       
C           21.03       8.7         78.47       
S           21.18       7.29        80.61       
H           19.2        9.87        79.04       
H           21.25       9.25        77.6        
C           19.92       9.05        79.32       
C           19.8        8.37        80.51       
C           25.98       8.21        76.63       
C           25.23       7.51        77.48       
N           25.34       9.39        76.33       
C           24.05       9.37        76.98       
C           25.16       6.28        78.28       
O           25.85       5.29        78.31       
O           23.32       10.31       76.79       
C           23.51       5.02        79.58       
C           25.78       10.63       75.73       
H           26.0187     11.34611    76.51632    
H           25.02       11.04       75.02       
H           26.66       10.49       75.02       
H           22.42       4.87        79.52       
H           23.7292     5.02707     80.64771    
H           23.93       4.22        78.94       
N           23.83       6.23        78.91       
C           23.97       8.12        77.7        
C           23.17       7.44        78.59       
C           29.65       7.7         75.09       
C           29.42       6.86        76.18       
S           28.22       8.59        74.88       
H           27.96       6.43        77.74       
H           30.14       6.11        76.44       
C           28.11       6.94        76.8        
C           27.35       7.91        76.28       
C           33.28       8.66        72.77       
C           33.08       7.44        73.39       
C           32.13       9.38        72.8        
N           32.14       5.64        74.47       
N           33.36       5.37        74.1        
N           34.02       6.38        73.47       
C           34.14       4.35        74.91       
H           32.08       10.44       72.37       
H           30.17       9.74        73.61       
H           33.39503    3.76667     75.45116    
H           34.69       3.59        74.26       
H           34.88376    4.84352     75.53559    
C           30.95       9.02        73.52       
C           31.91       6.94        74.06       
C           30.81       7.83        74.19       
C           36.23       10.48       70.72       
C           36.7        9.38        71.34       
S           34.52       10.56       71.16       
H           35.95       7.69        72.66       
H           37.74       9.07        71.3        
C           35.76       8.66        72.16       
C           34.52       9.17        72.14       
C           36.77       14.09       67.57       
C           37.32       13.36       68.57       
N           35.57       13.5        67.15       
C           35.16       12.5        68.14       
C           38.32       13.27       69.52       
O           39.28       13.99       69.79       
O           34.17       11.85       68.15       
C           38.91       11.78       71.4        
C           34.99       13.47       65.83       
H           33.90144    13.51297    65.86581    
H           35.23       12.53       65.34       
H           35.3        14.26       65.12       
H           39.19       10.73       71.43       
H           38.44406    12.15554    72.31103    
H           39.82       12.42       71.25       
N           38.07       12.15       70.29       
C           36.34       12.39       68.94       
C           36.85       11.57       70.01       
C           37.88       17.49       66.05       
C           38.98       16.82       66.45       
S           36.53       16.34       66.05       
H           39.48       14.97       67.59       
H           39.94       17.27       66.5        
C           38.71       15.51       66.97       
C           37.42       15.13       66.87       
C           37.6        21.47       64.28       
C           36.47       20.86       64.95       
C           38.64       20.64       64.16       
N           35.38       19.35       66.15       
N           34.66       20.44       66.01       
N           35.17       21.4        65.31       
C           33.24       20.34       66.48       
H           39.56       21.04       63.78       
H           39.79       18.85       64.78       
H           32.64519    20.74848    65.66303    
H           33.02       21.0        67.38       
H           33.00707    19.28494    66.62387    
C           38.79       19.34       64.78       
C           36.54       19.49       65.44       
C           37.72       18.73       65.51       
H           19.92       91.82       47.84       
H           37.49       22.21       63.45       
