472

C           21.39       81.47       15.27       
C           22.44       80.73       14.83       
S           21.78       83.15       14.94       
H           24.3        81.0        13.72       
H           22.46       79.68       14.92       
C           23.44       81.45       14.1        
C           23.3        82.81       14.16       
C           17.99       78.37       16.82       
C           18.4        79.68       16.69       
N           18.7        77.64       15.89       
C           19.76       78.47       15.31       
C           18.08       80.99       17.13       
O           17.33       81.45       17.97       
O           20.59       78.03       14.54       
C           19.43       83.08       17.21       
C           18.58       76.26       15.4        
H           19.45643    75.6733     15.67524    
H           18.45       76.3        14.35       
H           17.65       75.77       15.71       
H           19.97       83.69       16.47       
H           19.98191    83.12301    18.14896    
H           18.38       83.51       17.37       
N           19.26       81.78       16.67       
C           19.58       79.77       15.89       
C           20.1        81.0        15.86       
C           15.81       76.7        19.54       
C           15.44       78.02       19.38       
S           16.96       76.3        18.37       
H           15.75       79.56       17.86       
H           14.69       78.45       20.03       
C           16.06       78.67       18.27       
C           16.93       77.88       17.65       
C           15.6        74.28       23.29       
C           15.75       73.72       21.91       
C           15.4        75.68       23.19       
N           15.81       73.54       19.64       
N           15.91       72.37       20.27       
N           15.94       72.4        21.59       
C           15.42       71.14       19.64       
H           15.21       76.24       24.1        
H           15.4        77.48       21.96       
H           16.10351    70.8908     18.82833    
H           15.39       70.41       20.44       
H           14.39873    71.26678    19.28079    
C           15.48       76.39       21.92       
C           15.79       74.42       20.67       
C           15.61       75.86       20.69       
C           16.37       71.97       26.3        
C           16.62       73.22       26.67       
S           15.97       71.93       24.67       
H           16.07       75.27       26.0        
H           16.95       73.36       27.67       
C           16.19       74.19       25.78       
C           15.82       73.66       24.55       
C           20.03       69.61       28.3        
C           18.71       69.63       27.93       
N           20.35       70.99       28.34       
C           19.31       71.78       27.84       
C           17.5        68.77       27.74       
O           17.28       67.58       27.95       
O           19.48       72.99       27.68       
C           15.39       69.09       26.39       
C           21.51       71.64       28.98       
H           22.29994    71.80368    28.24699    
H           21.99       70.99       29.7        
H           21.14       72.54       29.5        
H           15.4        69.42       25.4        
H           14.44064    69.22665    26.90783    
H           15.55       68.07       26.31       
N           16.5        69.62       27.19       
C           18.31       70.89       27.5        
C           17.05       70.85       26.94       
C           22.68       66.7        28.94       
C           21.44       66.15       28.89       
S           22.58       68.43       28.77       
H           19.36       66.83       28.85       
H           21.29       65.07       28.9        
C           20.39       67.13       28.86       
C           20.83       68.43       28.7        
C           26.72       64.96       28.6        
C           25.59       64.23       29.13       
C           26.33       66.28       28.23       
N           23.55       63.84       29.88       
N           24.39       62.97       30.3        
N           25.65       63.09       29.9        
C           23.93       61.78       31.02       
H           27.03       66.97       27.67       
H           24.82       67.75       27.93       
H           22.90135    61.95264    31.33651    
H           24.03       60.94       30.37       
H           24.5126     61.57644    31.91847    
C           25.03       66.81       28.39       
C           24.28       64.76       29.25       
C           23.97       66.08       28.86       
C           29.9        62.87       27.7        
C           30.24       64.15       27.86       
S           28.2        62.7        28.07       
H           29.17       66.05       28.06       
H           31.19       64.57       27.64       
C           29.12       65.0        28.06       
C           27.97       64.36       28.34       
C           34.02       60.91       26.36       
C           32.72       60.77       26.67       
N           34.43       62.09       26.92       
C           33.3        62.88       27.27       
C           31.7        59.82       26.57       
O           31.65       58.66       26.14       
O           33.52       64.06       27.56       
C           29.24       59.67       27.07       
C           35.72       62.48       27.45       
H           36.00721    61.8984     28.32599    
H           36.46       62.49       26.66       
H           35.68       63.53       27.76       
H           28.46       60.13       26.46       
H           28.92138    59.42218    28.08251    
H           29.39       58.82       26.38       
N           30.49       60.48       27.02       
C           32.16       61.97       27.26       
C           30.8        61.78       27.43       
C           36.78       58.23       25.2        
C           35.47       57.87       24.86       
S           36.65       59.9        25.81       
H           33.44       58.79       24.8        
H           35.25       56.86       24.55       
C           34.45       58.84       25.14       
C           34.93       60.02       25.69       
C           40.63       56.28       26.13       
C           39.47       55.51       25.91       
C           40.49       57.64       25.89       
N           37.35       55.07       25.4        
N           38.09       53.99       25.71       
N           39.27       54.19       26.21       
C           37.45       52.7        25.85       
H           41.34       58.3        26.06       
H           39.28       59.28       25.33       
H           36.50618    52.75635    25.30766    
H           38.07       51.86       25.54       
H           37.26073    52.43794    26.89096    
C           39.26       58.25       25.54       
C           38.28       56.11       25.42       
C           38.11       57.55       25.31       
C           43.43       55.24       28.66       
C           43.3        54.22       27.79       
S           42.55       56.58       28.04       
H           41.93       53.64       26.18       
H           43.68       53.27       28.13       
C           42.29       54.44       26.83       
C           41.78       55.72       26.79       
C           44.12       53.17       32.99       
C           44.31       54.29       32.18       
N           43.92       52.12       32.05       
C           43.69       52.63       30.71       
C           44.58       55.74       32.28       
O           44.96       56.51       33.16       
O           43.35       51.86       29.88       
C           44.37       57.69       30.61       
C           44.18       50.69       32.22       
H           45.10309    50.41093    31.71194    
H           43.36       49.98       31.91       
H           44.41       50.37       33.26       
H           43.51       58.13       30.17       
H           45.2072     57.90449    29.94578    
H           44.62       58.17       31.54       
N           44.31       56.25       30.92       
C           43.98       54.02       30.81       
C           43.94       55.2        30.04       
C           43.59       52.43       36.83       
C           44.14       53.65       36.68       
S           43.62       51.6        35.34       
H           44.7        54.99       35.04       
H           44.28       54.3        37.58       
C           44.33       54.02       35.33       
C           44.16       53.03       34.46       
C           41.77       50.78       40.57       
C           42.86       51.63       40.59       
C           41.35       50.53       39.3        
N           44.65       52.76       39.72       
N           44.53       52.85       41.01       
N           43.48       52.29       41.57       
C           45.44       53.65       41.78       
H           40.58       49.83       39.05       
H           41.44       50.84       37.24       
H           46.12297    54.13469    41.08234    
H           44.84       54.43       42.3        
H           45.95407    53.01455    42.50113    
C           41.98       51.06       38.1        
C           43.53       52.09       39.35       
C           43.13       51.8        38.07       
C           39.15       49.36       43.18       
C           40.39       49.57       43.85       
S           39.39       49.81       41.54       
H           42.43       50.36       43.18       
H           40.49       49.35       44.87       
C           41.42       50.1        42.99       
C           41.05       50.23       41.73       
C           35.71       49.38       46.73       
C           36.06       49.12       45.39       
N           36.85       49.84       47.39       
C           37.99       49.79       46.47       
C           35.48       48.99       44.09       
O           34.32       48.94       43.76       
O           39.09       49.94       46.87       
C           36.31       48.71       41.77       
C           37.09       50.69       48.62       
H           37.0274     51.74733    48.36262    
H           38.07       50.47       48.97       
H           36.41       50.45       49.41       
H           37.25       48.34       41.33       
H           35.84261    49.56916    41.28887    
H           35.61       47.85       41.74       
N           36.61       49.04       43.19       
C           37.45       49.43       45.18       
C           37.84       49.28       43.87       
C           32.24       49.54       48.45       
C           32.07       48.84       47.28       
S           33.78       50.19       48.56       
H           33.42       48.1        45.69       
H           31.18       48.31       47.02       
C           33.34       48.68       46.62       
C           34.43       49.22       47.25       
C           29.06       51.41       50.97       
C           30.21       50.69       51.49       
C           29.12       51.46       49.62       
N           32.14       49.46       51.49       
N           31.74       49.91       52.69       
N           30.56       50.48       52.79       
C           32.53       49.66       53.82       
H           28.29       51.95       49.12       
H           29.86       50.84       47.7        
H           33.54409    49.45862    53.47478    
H           32.56       50.56       54.47       
H           32.03753    48.86776    54.38385    
C           30.05       50.74       48.79       
C           31.22       50.03       50.67       
C           31.14       50.09       49.29       
C           27.0        53.46       53.53       
C           26.17       53.25       52.46       
S           28.5        52.65       53.34       
H           26.32       52.11       50.49       
H           25.21       53.69       52.35       
C           26.82       52.45       51.43       
C           28.11       52.09       51.82       
C           24.18       55.35       56.79       
C           25.46       55.06       56.45       
N           23.37       55.16       55.71       
C           24.11       54.49       54.66       
C           26.89       55.02       56.89       
O           27.47       55.23       57.91       
O           23.49       54.04       53.73       
C           29.09       54.67       55.84       
C           22.12       55.94       55.41       
H           22.19867    56.598      54.54458    
H           21.84       56.51       56.26       
H           21.36       55.26       55.29       
H           29.41       54.98       54.85       
H           29.59275    53.79378    56.24938    
H           29.37       55.49       56.42       
N           27.62       54.46       55.81       
C           25.5        54.5        55.12       
C           26.77       54.09       54.77       
C           22.37       56.19       60.26       
C           23.7        56.4        60.37       
S           22.04       55.67       58.66       
H           25.48       56.29       59.07       
H           24.16       56.73       61.34       
C           24.42       56.3        59.13       
C           23.63       55.94       58.0        
C           19.13       56.1        63.16       
C           20.43       56.04       63.5        
C           19.01       56.17       61.85       
N           22.7        55.98       63.32       
N           22.34       55.75       64.59       
N           20.98       55.83       64.78       
C           23.32       55.76       65.63       
H           17.99       56.19       61.44       
H           19.75       56.04       59.85       
H           24.35058    55.79603    65.27686    
H           23.12       56.77       66.11       
H           23.17943    54.9388     66.33283    
C           20.06       56.15       60.93       
C           21.52       56.07       62.64       
C           21.35       56.19       61.26       
C           15.75       55.31       64.85       
C           16.71       55.18       65.79       
S           16.44       55.58       63.3        
H           18.82       55.77       66.05       
H           16.57       54.83       66.85       
C           17.96       55.66       65.37       
C           17.99       55.9        64.07       
C           11.96       53.1        66.81       
C           12.38       54.04       65.9        
N           12.99       52.75       67.61       
C           14.18       53.3        67.13       
C           12.0        54.96       64.87       
O           10.96       55.24       64.37       
O           15.23       53.08       67.67       
C           13.28       56.06       63.07       
C           13.16       51.74       68.65       
H           13.04839    52.13063    69.66146    
H           12.49       50.91       68.41       
H           14.17       51.27       68.51       
H           14.01       55.61       62.38       
H           13.36598    57.14196    63.17031    
H           12.33       55.88       62.64       
N           13.33       55.43       64.39       
C           13.82       54.19       66.05       
C           14.36       54.97       65.08       
C           8.39        51.31       67.33       
C           8.37        52.13       66.22       
S           10.03       51.36       67.92       
H           9.77        53.58       65.16       
H           7.57        52.18       65.55       
C           9.59        52.87       65.98       
C           10.59       52.53       66.84       
C           4.92        48.92       68.73       
C           6.13        48.91       69.52       
C           4.97        49.6        67.52       
N           8.21        49.6        70.1        
N           7.75        48.68       70.87       
N           6.5         48.18       70.56       
C           8.68        47.94       71.71       
H           4.17        49.53       66.77       
H           6.01        50.85       66.14       
H           9.6609      48.08819    71.25836    
H           8.84        48.32       72.71       
H           8.40261     46.88591    71.71693    
C           6.07        50.46       67.15       
C           7.22        49.77       69.16       
C           7.29        50.54       67.89       
C           1.44        47.42       69.38       
C           2.33        46.57       69.86       
S           2.24        48.67       68.62       
H           4.62        46.41       69.93       
H           2.03        45.62       70.26       
C           3.72        46.93       69.63       
C           3.8         48.12       69.08       
C           -2.72       45.48       71.01       
C           -2.01       46.4        70.25       
N           -1.75       44.66       71.57       
C           -0.43       44.99       71.06       
C           -2.25       47.6        69.45       
O           -3.26       48.19       69.15       
O           0.55        44.42       71.51       
C           -0.87       49.14       68.16       
C           -1.92       43.48       72.43       
H           -2.0251     42.59716    71.7994     
H           -0.98       43.4        72.95       
H           -2.76       43.61       73.08       
H           -0.25       48.75       67.36       
H           -0.60785    50.15319    68.46467    
H           -1.86       49.14       67.67       
N           -0.98       48.15       69.25       
C           -0.61       46.23       70.29       
C           0.02        47.26       69.62       
C           -5.92       46.83       72.71       
C           -6.07       45.46       72.54       
S           -4.42       47.31       72.02       
H           -4.86       43.8        71.85       
H           -6.89       44.97       73.0        
C           -4.97       44.89       71.98       
C           -4.04       45.71       71.4        
C           -8.27       49.83       74.85       
C           -8.78       48.5        74.64       
C           -7.01       50.08       74.26       
N           -8.88       46.46       73.8        
N           -9.85       46.71       74.68       
N           -9.85       47.9        75.14       
C           -10.61      45.63       75.35       
H           -6.59       51.08       74.26       
H           -5.32       49.35       73.22       
H           -9.97629    44.77344    75.57981    
H           -10.97      46.07       76.29       
H           -11.53155   45.38606    74.82147    
C           -6.3        49.1        73.56       
C           -8.05       47.56       73.85       
C           -6.74       47.82       73.36       
C           -8.99       52.92       77.29       
C           -9.95       51.98       77.45       
S           -7.77       52.26       76.25       
H           -10.54      49.95       76.78       
H           -10.81      52.12       78.09       
C           -9.78       50.78       76.74       
C           -8.74       50.86       75.85       
C           -10.46      56.48       80.1        
C           -9.52       55.84       79.41       
N           -11.66      55.82       79.8        
C           -11.43      54.66       79.01       
C           -8.07       55.97       79.17       
O           -7.23       56.8        79.42       
O           -12.3       53.8        78.94       
C           -6.4        54.67       77.87       
C           -12.98      56.39       79.71       
H           -13.28771   56.43294    78.66522    
H           -13.05      57.43       80.03       
H           -13.62      55.76       80.3        
H           -6.43       54.24       76.88       
H           -5.88043    53.98895    78.54403    
H           -5.88       55.66       77.88       
N           -7.79       54.89       78.27       
C           -10.0       54.72       78.62       
C           -8.91       54.18       77.98       
C           -10.38      59.38       82.73       
C           -9.37       59.53       81.86       
S           -11.11      57.88       82.32       
H           -8.42       58.69       80.06       
H           -8.66       60.35       82.07       
C           -9.25       58.63       80.8        
C           -10.29      57.68       80.79       
C           -11.25      61.27       86.72       
C           -12.3       61.04       85.79       
C           -9.96       61.14       86.12       
N           -13.21      60.26       83.82       
N           -14.13      60.55       84.8        
N           -13.66      61.06       85.95       
C           -15.41      59.86       84.85       
H           -9.03       61.41       86.67       
H           -8.75       60.26       84.63       
H           -15.61712   59.36719    83.90009    
H           -15.26      59.08       85.61       
H           -16.15966   60.54479    85.24646    
C           -9.76       60.57       84.81       
C           -12.03      60.5        84.45       
C           -10.73      60.18       83.94       
C           -11.61      63.54       89.84       
C           -10.93      62.47       90.15       
S           -12.48      63.25       88.36       
H           -10.18      60.63       89.13       
H           -10.54      62.29       91.19       
C           -10.78      61.55       89.13       
C           -11.36      61.96       87.99       
C           -13.2       65.5        93.96       
C           -12.98      65.63       92.63       
N           -12.49      64.37       94.35       
C           -11.94      63.71       93.24       
C           -13.22      66.49       91.44       
O           -13.59      67.57       91.28       
O           -11.28      62.65       93.28       
C           -12.12      66.55       89.23       
C           -11.94      64.0        95.66       
H           -10.87363   64.22303    95.62515    
H           -12.19      63.07       96.02       
H           -12.36      64.65       96.41       
H           -11.9       65.89       88.38       
H           -11.24185   67.14275    89.48613    
H           -12.9       67.18       88.98       
N           -12.57      65.73       90.35       
C           -12.3       64.5        92.12       
C           -12.19      64.5        90.73       
C           -15.67      67.32       96.17       
C           -15.33      68.17       95.15       
S           -14.74      65.89       96.21       
H           -13.96      68.14       93.48       
H           -15.69      69.11       94.9        
C           -14.32      67.63       94.31       
C           -13.93      66.38       94.71       
C           -18.36      68.18       99.63       
C           -18.19      69.06       98.53       
C           -17.65      67.01       99.49       
N           -17.52      69.75       96.57       
N           -18.47      70.46       97.08       
N           -18.78      70.26       98.33       
C           -18.86      71.71       96.51       
H           -17.99      66.21       100.18      
H           -16.53      65.62       98.31       
H           -19.93748   71.84814    96.59979    
H           -18.54      71.81       95.47       
H           -18.37838   72.47493    97.11911    
C           -16.87      66.69       98.32       
C           -17.35      68.78       97.44       
C           -16.61      67.56       97.29       
H           24.15       83.46       14.33       
H           -19.31      68.06       100.11      
