472

C           1.51        79.4        26.74       
C           2.45        79.08       27.65       
S           1.08        77.96       25.91       
H           3.66        77.28       28.39       
H           2.73        79.81       28.46       
C           2.88        77.74       27.68       
C           2.4         77.02       26.61       
C           -0.02       83.86       27.99       
C           0.0         82.78       27.03       
N           0.81        83.48       28.99       
C           1.12        82.06       28.89       
C           -0.71       82.25       25.82       
O           -1.43       82.7        24.99       
O           1.51        81.4        29.85       
C           0.28        80.75       24.13       
C           1.73        84.29       29.65       
H           2.73398     83.96518    29.37686    
H           1.54        84.3        30.66       
H           1.7         85.29       29.18       
H           0.45        79.75       23.97       
H           1.19217     81.20255    23.74109    
H           -0.69       80.97       23.56       
N           0.08        81.06       25.53       
C           0.75        81.65       27.56       
C           0.76        80.65       26.69       
C           -2.19       87.07       28.62       
C           -2.63       86.48       27.52       
S           -0.75       86.32       29.21       
H           -2.17       84.64       26.42       
H           -3.53       86.87       27.03       
C           -1.86       85.36       27.14       
C           -0.81       85.1        28.03       
C           -3.51       90.28       31.34       
C           -4.41       89.84       30.35       
C           -2.33       89.68       31.37       
N           -5.14       88.47       28.73       
N           -6.03       89.37       29.1        
N           -5.63       90.24       30.0        
C           -7.3        89.47       28.44       
H           -1.64       89.98       32.07       
H           -0.97       88.34       30.65       
H           -7.5512     88.62568    27.79804    
H           -8.09       89.69       29.14       
H           -7.3        90.40724    27.88351    
C           -1.99       88.66       30.51       
C           -4.05       88.71       29.53       
C           -2.79       88.08       29.53       
C           -3.57       93.15       34.06       
C           -4.64       93.31       33.27       
S           -2.7        91.76       33.55       
H           -5.46       92.38       31.49       
H           -5.3        94.15       33.44       
C           -4.72       92.38       32.23       
C           -3.76       91.46       32.22       
C           -1.74       94.27       38.34       
C           -2.58       94.65       37.33       
N           -1.0        93.18       37.84       
C           -1.46       92.73       36.53       
C           -3.63       95.6        36.93       
O           -4.21       96.54       37.52       
O           -1.03       91.66       36.13       
C           -4.36       96.41       34.86       
C           0.34        92.79       38.22       
H           1.08211     93.04662    37.46401    
H           0.43        91.77       38.45       
H           0.66        93.15       39.19       
H           -4.8        96.14       33.95       
H           -3.55616    97.11512    34.64846    
H           -5.09       96.97       35.47       
N           -3.86       95.33       35.59       
C           -2.47       93.69       36.22       
C           -3.31       94.01       35.2        
C           -1.06       97.08       40.9        
C           -0.69       95.94       41.49       
S           -1.58       96.84       39.31       
H           -0.63       93.84       40.95       
H           -0.17       95.94       42.41       
C           -0.85       94.83       40.59       
C           -1.4        95.1        39.37       
C           -1.16       101.18      42.41       
C           -0.52       100.17      43.11       
C           -1.66       100.81      41.26       
N           0.2         98.07       43.49       
N           0.46        98.94       44.49       
N           0.05        100.18      44.32       
C           1.48        98.61       45.57       
H           -2.11       101.57      40.58       
H           -1.97       99.34       39.74       
H           1.91551     97.62837    45.38335    
H           2.27        99.5        45.7        
H           1.01327     98.66026    46.55373    
C           -1.53       99.5        40.69       
C           -0.44       98.84       42.58       
C           -0.98       98.42       41.35       
C           -0.71       104.84      43.75       
C           -1.94       104.72      43.17       
S           0.07        103.25      43.71       
H           -3.09       103.21      42.08       
H           -2.62       105.56      43.04       
C           -2.22       103.44      42.65       
C           -1.27       102.51      42.92       
C           -0.84       109.52      45.02       
C           -0.14       108.33      45.0        
N           -1.94       109.34      44.13       
C           -1.99       108.01      43.56       
C           1.06        107.71      45.58       
O           1.91        107.98      46.39       
O           -2.82       107.78      42.7        
C           2.1         105.53      45.26       
C           -2.78       110.39      43.47       
H           -3.82373    110.34063   43.7803     
H           -2.42       111.38      43.57       
H           -2.77       110.17      42.51       
H           2.36        104.98      44.37       
H           2.07174     104.94363   46.17841    
H           2.98        106.24      45.35       
N           0.96        106.36      45.08       
C           -0.86       107.32      44.26       
C           -0.22       106.07      44.29       
C           -0.27       112.96      46.92       
C           0.87        112.16      46.86       
S           -1.52       112.0       46.18       
H           1.52        110.24      46.07       
H           1.79        112.5       47.34       
C           0.76        110.96      46.15       
C           -0.46       110.73      45.65       
C           -1.32       116.69      49.05       
C           -0.09       116.08      49.11       
C           -2.13       116.07      48.28       
N           1.54        114.39      48.86       
N           1.91        115.51      49.44       
N           1.03        116.41      49.8        
C           3.37        115.77      49.34       
H           -3.06       116.54      47.98       
H           -2.49       114.52      46.78       
H           3.85998     114.79695   49.37451    
H           3.61        116.19      48.36       
H           3.62602     116.372     50.21186    
C           -1.77       114.85      47.54       
C           0.21        114.79      48.57       
C           -0.61       114.19      47.63       
C           -2.93       120.07      50.84       
C           -1.62       120.0       51.12       
S           -3.38       118.63      49.93       
H           0.12        118.75      50.64       
H           -1.0        120.8       51.6        
C           -0.96       118.8       50.58       
C           -1.71       117.9       49.83       
C           -6.94       122.71      50.52       
C           -5.73       122.58      51.15       
N           -7.2        121.53      49.8        
C           -6.14       120.6       50.01       
C           -4.76       123.19      52.01       
O           -4.62       124.23      52.63       
O           -6.23       119.59      49.41       
C           -2.36       122.81      52.59       
C           -8.26       121.09      48.96       
H           -8.95166    120.37011   49.39758    
H           -7.91       120.65      48.05       
H           -8.85       121.86      48.52       
H           -1.42       122.71      52.1        
H           -2.38066    122.42433   53.60928    
H           -2.46       123.88      52.55       
N           -3.57       122.34      51.88       
C           -5.12       121.28      50.76       
C           -3.85       121.16      51.18       
C           -10.04      125.22      51.02       
C           -9.02       125.58      51.79       
S           -9.5        123.87      50.0        
H           -7.01       124.94      52.31       
H           -9.17       126.31      52.56       
C           -7.85       124.83      51.66       
C           -7.94       123.78      50.73       
C           -14.36      126.16      51.44       
C           -13.81      125.81      50.13       
C           -13.42      126.26      52.42       
N           -12.16      125.22      48.69       
N           -13.38      125.12      48.16       
N           -14.39      125.53      48.96       
C           -13.64      124.37      46.95       
H           -13.73      126.48      53.41       
H           -11.35      126.38      53.08       
H           -12.68957   124.22431   46.43663    
H           -14.19      123.53      47.3        
H           -14.26762   124.94121   46.26596    
C           -11.96      126.1       52.22       
C           -12.34      125.61      49.99       
C           -11.38      125.8       51.05       
C           -18.11      126.9       52.72       
C           -18.18      126.64      51.4        
S           -16.48      126.54      53.21       
H           -16.83      126.15      49.7        
H           -19.08      126.68      50.83       
C           -16.9       126.35      50.78       
C           -15.8       126.38      51.63       
C           -19.9       127.98      56.98       
C           -20.13      127.47      55.75       
N           -18.58      128.37      57.05       
C           -17.92      128.06      55.8        
C           -21.13      126.85      54.9        
O           -22.27      126.49      55.09       
O           -16.69      128.24      55.6        
C           -20.82      125.23      53.08       
C           -17.79      128.89      58.14       
H           -17.43536   129.88438   57.86881    
H           -16.89      128.23      58.2        
H           -18.29      128.81      59.06       
H           -19.98      124.57      53.07       
H           -21.33079   125.32096   52.1214     
H           -21.59      124.76      53.71       
N           -20.45      126.51      53.64       
C           -18.97      127.51      54.92       
C           -19.18      127.03      53.69       
C           -22.29      128.21      60.06       
C           -23.08      128.07      58.95       
S           -20.61      128.27      59.68       
H           -22.7       127.98      56.82       
H           -24.14      127.9       58.9        
C           -22.28      128.1       57.79       
C           -20.93      128.25      57.96       
C           -23.66      129.1       64.15       
C           -24.56      128.71      63.12       
C           -22.36      129.03      63.76       
N           -25.2       128.05      61.09       
N           -26.21      128.04      61.96       
N           -25.92      128.46      63.18       
C           -27.39      127.17      61.84       
H           -21.68      129.16      64.55       
H           -20.86      128.8       62.28       
H           -27.37593   126.63533   60.89025    
H           -27.41      126.43      62.63       
H           -28.32726   127.70858   61.97989    
C           -21.89      128.7       62.49       
C           -24.11      128.46      61.82       
C           -22.74      128.47      61.45       
C           -24.26      129.8       67.88       
C           -25.44      130.14      67.23       
S           -23.07      129.12      66.82       
H           -26.1       130.13      65.11       
H           -26.28      130.6       67.75       
C           -25.35      129.91      65.89       
C           -24.11      129.38      65.48       
C           -23.99      132.14      72.11       
C           -23.79      130.97      71.34       
N           -24.71      132.98      71.28       
C           -24.91      132.37      69.97       
C           -23.29      129.57      71.45       
O           -22.83      128.98      72.44       
O           -25.41      132.95      69.03       
C           -22.71      127.73      69.81       
C           -25.54      134.12      71.67       
H           -26.54915   134.06274   71.26204    
H           -25.09      135.1       71.41       
H           -25.6       134.1       72.78       
H           -22.65      127.56      68.76       
H           -23.17773   126.87134   70.29169    
H           -21.73      127.87      70.3        
N           -23.36      129.0       70.13       
C           -24.28      131.06      69.99       
C           -23.93      129.97      69.27       
C           -22.37      133.38      75.6        
C           -22.41      132.02      75.6        
S           -23.05      133.94      74.07       
H           -23.14      130.42      74.33       
H           -21.91      131.4       76.34       
C           -23.11      131.48      74.47       
C           -23.61      132.36      73.54       
C           -20.41      136.17      78.4        
C           -21.3       136.63      77.45       
C           -20.17      134.8       78.37       
N           -22.62      136.44      75.61       
N           -22.61      137.69      76.14       
N           -21.83      137.89      77.16       
C           -23.22      138.8       75.4        
H           -19.55      134.28      79.13       
H           -20.54      132.82      77.57       
H           -24.04131   138.45491   74.77194    
H           -23.53      139.48      76.13       
H           -22.51657   139.3711    74.79408    
C           -20.78      133.87      77.42       
C           -21.82      135.74      76.47       
C           -21.63      134.31      76.41       
C           -18.01      138.21      80.71       
C           -19.2       138.91      80.69       
S           -18.21      136.63      79.93       
H           -21.31      138.57      79.97       
H           -19.26      139.87      81.17       
C           -20.26      138.18      80.06       
C           -19.83      137.02      79.47       
C           -13.38      138.54      81.75       
C           -14.61      139.04      81.89       
N           -13.4       137.63      80.73       
C           -14.72      137.35      80.34       
C           -15.38      139.85      82.77       
O           -15.07      140.47      83.77       
O           -15.0       136.45      79.66       
C           -17.64      139.66      83.59       
C           -12.38      137.29      79.78       
H           -12.01383   138.20543   79.31524    
H           -11.59      136.65      80.17       
H           -12.84      136.74      78.97       
H           -18.48      138.87      83.52       
H           -17.97173   140.69049   83.71705    
H           -17.12      139.39      84.5        
N           -16.79      139.55      82.43       
C           -15.54      138.27      81.11       
C           -16.85      138.69      81.36       
C           -10.05      139.48      83.81       
C           -10.98      140.48      83.84       
S           -10.65      138.22      82.7        
H           -13.02      140.86      83.18       
H           -10.89      141.38      84.49       
C           -12.17      140.23      83.16       
C           -12.15      139.08      82.4        
C           -6.27       138.89      86.01       
C           -7.22       139.91      86.31       
C           -6.65       138.24      84.86       
N           -9.18       141.15      86.19       
N           -8.35       141.42      87.2        
N           -7.21       140.78      87.34       
C           -8.61       142.61      87.9        
H           -6.11       137.32      84.45       
H           -7.93       137.81      83.34       
H           -9.585      142.98555   87.58945    
H           -8.72       142.41      88.94       
H           -7.8311     143.36032   87.76423    
C           -7.83       138.51      84.11       
C           -8.45       140.18      85.6        
C           -8.8        139.37      84.53       
C           -2.82       138.93      88.07       
C           -2.6        138.39      86.87       
S           -4.52       139.37      88.1        
H           -3.75       137.76      85.12       
H           -1.63       138.08      86.49       
C           -3.8        138.22      86.05       
C           -4.93       138.8       86.52       
C           1.74        139.8       89.62       
C           0.38        139.9       89.84       
N           1.91        139.43      88.34       
C           0.65        139.17      87.71       
C           -0.54       140.1       90.92       
O           -0.39       140.37      92.05       
O           0.68        138.74      86.59       
C           -3.05       140.0       91.06       
C           3.1         139.52      87.56       
H           3.45425     140.54732   87.47498    
H           3.9         138.79      87.75       
H           2.88        139.18      86.51       
H           -3.71       139.21      90.75       
H           -3.54605    140.96988   91.02298    
H           -2.8        139.78      92.1        
N           -1.85       139.91      90.28       
C           -0.38       139.47      88.71       
C           -1.74       139.42      88.97       
C           3.99        141.18      92.59       
C           4.47        140.01      92.03       
S           2.54        141.56      91.63       
H           4.16        138.71      90.2        
H           5.29        139.55      92.52       
C           3.88        139.58      90.84       
C           2.65        140.12      90.67       
C           4.32        143.29      96.46       
C           5.06        142.14      96.08       
C           3.56        143.69      95.43       
N           5.98        140.53      94.71       
N           6.4         140.49      95.96       
N           5.86        141.38      96.82       
C           7.68        139.75      96.23       
H           3.01        144.62      95.52       
H           2.88        143.54      93.42       
H           7.48844     138.72125   95.92492    
H           8.53        140.24      95.74       
H           7.87339     139.8095    97.30106    
C           3.54        143.06      94.13       
C           5.06        141.53      94.8        
C           4.2         141.92      93.82       
C           3.5         145.31      99.75       
C           4.36        144.31      100.07      
S           3.27        145.23      97.97       
H           5.35        142.56      99.24       
H           4.74        144.24      101.07      
C           4.78        143.49      99.04       
C           4.21        143.8       97.82       
C           1.71        147.25      103.79      
C           1.93        147.4       102.44      
N           2.34        146.18      104.25      
C           2.98        145.49      103.18      
C           1.67        148.21      101.21      
O           1.15        149.32      101.0       
O           3.56        144.44      103.27      
C           2.33        148.16      98.83       
C           2.51        145.96      105.67      
H           3.37793     145.38138   105.98622   
H           1.57        145.57      106.05      
H           2.84        146.85      106.13      
H           2.48        147.47      98.06       
H           2.97469     149.03649   98.76481    
H           1.32        148.36      98.67       
N           2.3         147.49      100.15      
C           2.69        146.33      102.01      
C           2.84        146.32      100.62      
C           -0.25       149.61      106.28      
C           0.16        150.31      105.18      
S           0.26        148.0       106.11      
H           1.14        149.85      103.27      
H           -0.08       151.33      104.88      
C           0.79        149.49      104.21      
C           1.12        148.21      104.62      
C           -2.53       151.71      109.34      
C           -2.53       150.32      109.23      
C           -1.74       152.34      108.37      
N           -1.89       148.24      108.45      
N           -2.8        148.22      109.38      
N           -3.22       149.34      109.9       
C           -3.37       146.97      109.81      
H           -1.6        153.4       108.27      
H           -0.51       152.17      106.68      
H           -2.73084    146.1817    109.4123    
H           -3.5        146.96      110.89      
H           -4.35875    146.85536   109.36578   
C           -1.16       151.59      107.32      
C           -1.83       149.57      108.27      
C           -1.13       150.22      107.26      
C           -4.37       154.34      111.55      
C           -4.99       153.19      111.81      
S           -3.01       154.18      110.54      
H           -4.86       151.11      111.15      
H           -5.85       153.15      112.51      
C           -4.39       152.14      111.1       
C           -3.37       152.46      110.31      
C           -3.89       158.74      113.17      
C           -4.75       157.78      112.69      
N           -2.59       158.24      113.21      
C           -2.58       156.88      112.92      
C           -6.15       157.45      112.44      
O           -7.17       158.09      112.5       
O           -1.51       156.31      112.75      
C           -7.19       155.73      110.9       
C           -1.35       158.77      113.73      
H           -1.16219    158.31785   114.70385   
H           -1.44       159.82      113.88      
H           -0.56       158.57      113.03      
H           -7.42       154.64      110.85      
H           -7.01522    156.16696   109.91683   
H           -8.1        156.05      111.33      
N           -6.09       156.17      111.83      
C           -3.98       156.63      112.47      
C           -4.79       155.63      111.98      
C           -4.76       162.16      114.85      
C           -5.8        161.68      114.13      
S           -3.47       160.98      114.69      
H           -6.19       160.18      112.6       
H           -6.74       162.21      114.04      
C           -5.54       160.52      113.39      
C           -4.26       160.05      113.52      
C           -4.28       165.8       117.36      
C           -3.19       165.02      116.96      
C           -5.5        165.38      116.82      
N           -2.11       163.37      116.07      
N           -1.31       164.18      116.7       
N           -1.88       165.22      117.22      
C           -0.01       163.82      116.87      
H           -6.37       165.96      117.12      
H           -6.57       163.94      115.58      
H           0.41914     163.85576   115.86867   
H           0.03        162.84      117.23      
H           0.51497     164.49196   117.54896   
C           -5.61       164.2       116.0       
C           -3.34       163.87      116.16      
C           -4.52       163.39      115.63      
H           3.07        76.32       26.08       
H           -4.12       166.87      117.44      
