472

C           62.51       82.42       38.72       
C           63.34       83.26       39.47       
S           63.2        82.28       37.1        
H           65.03       84.63       39.1        
H           63.04       83.54       40.51       
C           64.35       83.87       38.69       
C           64.43       83.54       37.4        
C           60.0        80.04       42.16       
C           60.17       80.39       40.78       
N           61.12       80.56       42.81       
C           61.96       81.36       41.91       
C           59.58       80.21       39.54       
O           58.62       79.7        39.07       
O           62.99       81.79       42.33       
C           59.87       81.47       37.4        
C           61.28       80.89       44.16       
H           60.92287    81.90424    44.33856    
H           62.31       80.86       44.48       
H           60.51       80.38       44.76       
H           60.63       81.48       36.66       
H           59.38847    82.44723    37.36459    
H           59.08       80.84       37.13       
N           60.41       81.04       38.71       
C           61.35       81.26       40.62       
C           61.53       81.55       39.33       
C           57.49       77.68       44.18       
C           57.13       77.72       42.84       
S           58.8        78.72       44.32       
H           57.9        78.6        41.0        
H           56.27       77.22       42.4        
C           58.04       78.44       42.04       
C           59.07       79.12       42.7        
C           54.96       76.35       47.59       
C           56.31       76.69       47.75       
C           54.63       76.3        46.29       
N           58.3        77.56       47.24       
N           58.09       77.43       48.51       
N           56.93       76.92       48.93       
C           58.94       78.19       49.4        
H           53.61       76.04       46.12       
H           54.96       76.72       44.25       
H           59.90755    78.35706    48.92667    
H           58.44       79.13       49.69       
H           59.10868    77.55745    50.27151    
C           55.45       76.78       45.23       
C           57.2        77.09       46.65       
C           56.73       77.2        45.35       
C           52.05       75.86       50.32       
C           53.23       75.63       50.85       
S           52.35       76.34       48.66       
H           55.37       75.73       50.34       
H           53.39       75.31       51.91       
C           54.33       75.86       50.02       
C           54.04       76.1        48.68       
C           48.86       75.06       53.87       
C           49.1        75.53       52.57       
N           50.12       74.79       54.45       
C           51.17       75.03       53.55       
C           48.49       76.06       51.41       
O           47.4        76.36       51.01       
O           52.38       74.78       53.84       
C           49.15       76.16       49.03       
C           50.43       73.98       55.59       
H           50.55963    72.96459    55.21552    
H           49.74       74.0        56.43       
H           51.32       74.42       55.97       
H           49.71       75.42       48.46       
H           49.07459    77.16088    48.60497    
H           48.14       75.73       48.93       
N           49.54       76.02       50.43       
C           50.51       75.44       52.32       
C           50.77       75.8        51.01       
C           45.61       74.0        55.88       
C           45.27       74.12       54.57       
S           47.3        74.36       56.08       
H           46.2        74.97       52.77       
H           44.3        73.92       54.14       
C           46.34       74.66       53.79       
C           47.57       74.64       54.37       
C           43.5        71.86       59.16       
C           44.23       73.03       59.41       
C           43.29       71.6        57.82       
N           45.69       74.69       58.92       
N           45.44       74.59       60.18       
N           44.62       73.63       60.57       
C           46.25       75.35       61.14       
H           42.47       70.87       57.54       
H           43.53       72.06       55.82       
H           46.8913     76.02541    60.57374    
H           45.63       75.83       61.86       
H           46.88815    74.69033    61.72796    
C           43.85       72.41       56.81       
C           44.91       73.76       58.37       
C           44.82       73.41       56.97       
C           41.24       70.46       62.05       
C           41.24       69.54       61.06       
S           42.17       71.85       61.63       
H           42.26       69.35       59.14       
H           40.8        68.55       61.1        
C           42.12       69.92       60.01       
C           42.65       71.18       60.13       
C           38.72       68.28       65.42       
C           39.55       69.24       65.07       
N           38.57       67.47       64.29       
C           39.1        68.08       63.1        
C           40.14       70.45       65.6        
O           40.24       70.89       66.75       
O           38.89       67.53       62.0        
C           41.11       72.49       64.54       
C           37.97       66.11       64.17       
H           38.72333    65.42003    64.55019    
H           37.06       66.04       64.64       
H           37.87       65.86       63.11       
H           40.77       73.09       63.64       
H           42.14151    72.73187    64.7961     
H           40.42       72.79       65.32       
N           40.8        71.07       64.47       
C           39.84       69.21       63.64       
C           40.63       70.27       63.34       
C           36.26       67.49       68.49       
C           37.23       68.38       68.91       
S           36.54       67.16       66.83       
H           39.08       69.34       68.07       
H           37.34       68.8        69.92       
C           38.24       68.69       67.91       
C           38.04       68.03       66.71       
C           32.3        66.64       70.15       
C           32.82       65.92       69.04       
C           33.16       67.54       70.7        
N           34.33       65.2        67.57       
N           33.15       64.6        67.49       
N           32.21       64.91       68.37       
C           33.09       63.26       66.91       
H           32.9        68.08       71.69       
H           35.13       68.45       70.62       
H           33.77341    63.23842    66.06113    
H           33.47       62.46       67.52       
H           32.06659    63.01297    66.62768    
C           34.51       67.68       70.17       
C           34.15       66.06       68.58       
C           35.02       67.01       69.1        
C           28.51       66.82       71.37       
C           28.88       65.52       71.24       
S           29.87       67.86       70.97       
H           30.58       64.32       70.7        
H           28.12       64.7        71.23       
C           30.23       65.31       70.8        
C           30.92       66.52       70.6        
C           23.94       66.73       72.88       
C           25.03       67.46       72.52       
N           24.37       65.42       72.95       
C           25.66       65.19       72.45       
C           25.54       68.86       72.33       
O           24.98       69.98       72.5        
O           26.06       64.16       72.19       
C           27.09       69.69       70.74       
C           23.8        64.41       73.83       
H           24.42686    64.24384    74.70609    
H           23.62       63.48       73.3        
H           22.78       64.72       74.14       
H           27.53       69.35       69.83       
H           27.6107     70.52312    71.2121     
H           26.18       70.06       70.38       
N           26.81       68.67       71.67       
C           26.05       66.56       72.1        
C           27.19       67.29       71.73       
C           20.64       68.03       74.36       
C           21.66       68.82       74.82       
S           21.17       66.68       73.47       
H           23.88       68.86       74.56       
H           21.48       69.78       75.37       
C           22.89       68.38       74.36       
C           22.83       67.22       73.64       
C           16.3        68.53       75.13       
C           16.81       67.89       74.0        
C           17.29       69.05       75.94       
N           18.26       67.02       72.51       
N           16.97       66.85       72.15       
N           16.14       67.27       73.03       
C           16.45       66.27       70.95       
H           17.03       69.51       76.89       
H           19.36       69.22       76.46       
H           17.25912    65.85834    70.34671    
H           15.68       65.53       71.13       
H           15.97477    67.00696    70.30258    
C           18.7        68.93       75.65       
C           18.23       67.72       73.73       
C           19.23       68.28       74.58       
C           12.53       68.19       76.62       
C           12.55       68.25       75.27       
S           14.13       68.5        77.06       
H           14.03       68.28       73.54       
H           11.57       68.23       74.76       
C           13.85       68.39       74.64       
C           14.86       68.52       75.5        
C           7.98        68.79       77.84       
C           9.24        68.37       78.19       
N           8.09        69.28       76.54       
C           9.4         69.09       75.99       
C           9.95        67.88       79.33       
O           9.68        67.6        80.51       
O           9.67        69.35       74.85       
C           12.31       66.82       79.43       
C           7.15        69.98       75.7        
H           6.8259      69.20217    75.00859    
H           7.54        70.78       75.08       
H           6.36        70.4        76.3        
H           13.26       67.37       79.35       
H           12.33162    65.83264    78.96875    
H           11.99       66.82       80.46       
N           11.3        67.7        78.79       
C           10.15       68.52       77.11       
C           11.37       68.18       77.49       
C           4.64        69.07       79.83       
C           5.65        69.09       80.73       
S           5.22        68.99       78.2        
H           7.8         68.88       80.58       
H           5.46        69.24       81.82       
C           6.89        68.94       80.05       
C           6.86        69.04       78.68       
C           0.45        70.22       80.33       
C           1.51        70.71       81.15       
C           0.95        69.26       79.42       
N           3.56        70.74       82.07       
N           2.63        71.55       82.7        
N           1.37        71.6        82.21       
C           2.95        72.25       83.94       
H           0.23        68.7        78.81       
H           2.46        68.06       78.7        
H           3.60175     71.59117    84.51382    
H           3.43        73.18       83.75       
H           2.0129      72.50752    84.43359    
C           2.32        68.92       79.26       
C           2.79        70.24       81.03       
C           3.29        69.43       80.05       
C           -3.46       70.42       80.14       
C           -3.05       71.43       80.89       
S           -2.1        69.45       79.78       
H           -1.25       72.51       81.42       
H           -3.73       72.02       81.44       
C           -1.65       71.61       80.87       
C           -0.93       70.57       80.33       
C           -8.12       69.31       81.03       
C           -7.02       69.2        80.23       
N           -7.81       70.27       81.93       
C           -6.39       70.6        81.95       
C           -6.49       68.47       79.06       
O           -6.99       67.7        78.3        
O           -5.79       71.14       82.88       
C           -4.62       68.98       77.53       
C           -8.72       71.22       82.5        
H           -8.49261    72.24692    82.21393    
H           -8.61       71.23       83.56       
H           -9.83       71.07       82.28       
H           -3.58       68.65       77.63       
H           -4.60588    69.94031    77.01454    
H           -5.27       68.24       77.06       
N           -5.21       69.1        78.88       
C           -5.94       69.99       80.71       
C           -4.78       69.86       79.98       
C           -11.24      66.92       80.38       
C           -11.33      67.55       81.64       
S           -9.82       67.65       79.6        
H           -10.06      68.91       82.85       
H           -12.03      67.32       82.4        
C           -10.23      68.42       81.9        
C           -9.27       68.55       80.92       
C           -14.04      64.26       78.23       
C           -12.72      64.39       77.86       
C           -14.41      65.05       79.26       
N           -10.64      65.24       77.79       
N           -10.86      64.44       76.78       
N           -12.06      63.83       76.86       
C           -9.89       64.33       75.65       
H           -15.46      65.02       79.55       
H           -13.93      66.36       80.81       
H           -8.89749    64.14301    76.05995    
H           -10.27      63.64       74.93       
H           -9.84075    65.29388    75.14343    
C           -13.5       65.82       79.99       
C           -11.79      65.23       78.51       
C           -12.17      66.0        79.66       
C           -16.34      62.71       75.48       
C           -16.99      62.54       76.7        
S           -14.93      63.64       75.75       
H           -16.6       63.1        78.78       
H           -17.98      62.05       76.75       
C           -16.27      63.07       77.79       
C           -15.02      63.54       77.46       
C           -18.96      60.1        72.36       
C           -17.96      61.05       72.58       
N           -19.24      59.53       73.57       
C           -18.57      60.22       74.66       
C           -17.08      61.95       71.93       
O           -16.88      62.14       70.77       
O           -18.82      60.1        75.84       
C           -15.6       63.82       72.65       
C           -20.23      58.45       73.97       
H           -19.64083   57.74725    74.55917    
H           -20.99      58.84       74.65       
H           -20.81      58.01       73.17       
H           -14.58      63.93       73.06       
H           -16.20467   64.68787    72.91321    
H           -15.41      63.91       71.65       
N           -16.33      62.64       72.96       
C           -17.75      61.18       73.97       
C           -16.78      62.09       74.23       
C           -20.54      58.98       68.92       
C           -19.22      59.27       68.73       
S           -20.92      59.03       70.62       
H           -17.46      59.85       69.88       
H           -18.79      59.29       67.77       
C           -18.54      59.59       69.91       
C           -19.32      59.56       71.09       
C           -23.57      57.93       65.88       
C           -23.87      58.68       67.04       
C           -22.23      57.52       65.89       
N           -23.52      59.72       69.12       
N           -24.76      59.78       68.74       
N           -25.03      59.26       67.53       
C           -25.59      60.81       69.31       
H           -21.95      56.8        65.1        
H           -20.32      57.41       66.73       
H           -26.10094   60.49066    70.21833    
H           -25.01      61.74       69.54       
H           -26.27829   61.26886    68.6002     
C           -21.28      57.81       66.86       
C           -22.92      59.0        68.09       
C           -21.53      58.69       67.91       
C           -25.45      56.44       62.73       
C           -26.23      56.38       63.81       
S           -23.92      57.1        63.21       
H           -26.3       57.13       65.92       
H           -27.2       55.91       63.66       
C           -25.77      57.05       64.96       
C           -24.44      57.41       64.85       
C           -28.38      54.9        59.38       
C           -27.1       55.31       59.69       
N           -29.2       55.26       60.43       
C           -28.5       55.91       61.48       
C           -25.7       55.24       59.23       
O           -25.11      54.9        58.22       
O           -29.09      56.39       62.41       
C           -23.57      55.63       60.29       
C           -30.67      55.17       60.64       
H           -31.11563   56.08282    60.24468    
H           -31.09      54.3        60.11       
H           -30.96      55.15       61.69       
H           -23.16      55.34       61.31       
H           -23.10972   56.52899    59.88006    
H           -23.23      54.87       59.63       
N           -25.02      55.8        60.32       
C           -27.16      55.91       60.99       
C           -25.89      56.16       61.36       
C           -29.87      52.9        56.31       
C           -28.64      53.39       55.93       
S           -30.31      53.52       57.89       
H           -26.91      54.21       56.97       
H           -28.17      53.26       54.92       
C           -27.94      53.89       57.03       
C           -28.74      54.22       58.13       
C           -33.22      51.85       53.66       
C           -32.9       51.08       54.9        
C           -32.19      52.75       53.29       
N           -31.75      50.57       56.86       
N           -32.89      49.89       56.71       
N           -33.52      50.1        55.55       
C           -33.39      48.92       57.68       
H           -32.33      53.44       52.43       
H           -30.51      53.88       53.96       
H           -32.59815   48.60743    58.36071    
H           -34.22      49.36       58.26       
H           -33.8242    48.06585    57.16039    
C           -31.1       53.01       54.2        
C           -31.73      51.4        55.73       
C           -30.87      52.41       55.41       
C           -36.44      50.9        51.6        
C           -36.35      52.25       51.64       
S           -35.23      50.13       52.66       
H           -34.95      53.8        52.36       
H           -36.95      52.93       51.07       
C           -35.26      52.76       52.32       
C           -34.52      51.77       52.94       
C           -40.8       50.63       49.44       
C           -39.62      49.98       49.93       
N           -40.74      51.88       50.02       
C           -39.47      52.18       50.65       
C           -38.91      48.72       49.91       
O           -39.26      47.71       49.45       
O           -39.3       53.18       51.25       
C           -36.87      47.78       50.94       
C           -41.63      53.05       49.81       
H           -41.12142   53.84113    49.25904    
H           -41.96      53.4        50.81       
H           -42.46      52.77       49.17       
H           -36.45      47.87       51.91       
H           -36.1399    47.53899    50.16737    
H           -37.44      46.93       51.09       
N           -37.73      48.96       50.68       
C           -38.8       50.9        50.65       
C           -37.62      50.27       51.11       
C           -43.27      49.65       46.54       
C           -42.85      48.51       47.11       
S           -42.74      51.03       47.43       
H           -41.49      47.88       48.66       
H           -43.15      47.53       46.82       
C           -41.93      48.69       48.15       
C           -41.78      50.05       48.54       
C           -45.5       50.58       42.9        
C           -44.8       49.34       43.07       
C           -45.59      51.31       44.05       
N           -43.33      47.87       43.93       
N           -43.64      47.55       42.66       
N           -44.66      48.32       42.2        
C           -42.74      46.8        41.83       
H           -46.23      52.15       44.09       
H           -45.06      51.63       46.11       
H           -41.76793   46.79296    42.32308    
H           -43.1       45.82       41.61       
H           -42.72594   47.3483     40.88805    
C           -44.92      50.94       45.25       
C           -44.06      49.01       44.21       
C           -44.07      49.86       45.33       
C           -47.01      52.52       39.71       
C           -46.87      51.19       39.41       
S           -46.61      52.7        41.41       
H           -46.06      49.27       40.34       
H           -47.13      50.93       38.44       
C           -46.28      50.35       40.43       
C           -46.16      51.02       41.66       
C           -47.66      57.2        39.04       
C           -47.37      56.0        38.49       
N           -47.81      56.91       40.38       
C           -47.96      55.55       40.67       
C           -47.0       55.31       37.26       
O           -46.69      55.66       36.14       
O           -48.24      55.16       41.81       
C           -46.29      52.96       36.58       
C           -47.91      57.86       41.53       
H           -48.92563   57.92956    41.91956    
H           -47.43      58.84       41.25       
H           -47.26      57.41       42.36       
H           -46.88      52.07       36.47       
H           -45.24432   52.68067    36.70892    
H           -46.48      53.48       35.59       
N           -46.79      53.86       37.61       
C           -47.55      54.93       39.46       
C           -47.21      53.64       38.93       
C           -48.22      60.95       37.73       
C           -47.62      60.14       36.75       
S           -48.57      59.92       39.12       
H           -46.87      58.07       36.47       
H           -47.25      60.59       35.83       
C           -47.42      58.75       37.09       
C           -47.78      58.5        38.4        
C           -49.04      65.23       37.57       
C           -48.81      64.52       36.42       
C           -49.18      64.48       38.71       
N           -47.87      62.84       35.24       
N           -48.15      63.87       34.48       
N           -48.69      64.87       35.15       
C           -48.05      63.89       33.05       
H           -49.56      65.01       39.6        
H           -49.2       62.6        39.72       
H           -48.92308   64.3781     32.6169     
H           -48.02      62.9        32.65       
H           -47.12821   64.3869     32.74754    
C           -49.04      63.07       38.75       
C           -48.39      63.16       36.46       
C           -48.52      62.38       37.68       
H           64.92       84.06       36.66       
H           -49.72      66.1        37.54       
