472

C           92.51       15.31       27.1        
C           92.34       16.41       27.85       
S           93.13       14.04       28.04       
H           92.21       16.86       29.95       
H           92.08       17.41       27.46       
C           92.49       16.08       29.23       
C           93.1        14.89       29.54       
C           91.01       16.93       22.88       
C           91.49       15.89       23.62       
N           91.36       18.09       23.57       
C           92.03       17.84       24.77       
C           91.64       14.45       23.52       
O           91.36       13.59       22.66       
O           92.26       18.75       25.58       
C           92.35       12.65       25.06       
C           91.15       19.54       23.29       
H           90.22011    19.82834    23.78017    
H           91.03       19.74       22.2        
H           91.97       20.15       23.71       
H           92.12       12.39       25.95       
H           93.37147    12.43571    24.7457     
H           91.73       12.02       24.41       
N           91.98       14.09       24.89       
C           92.03       16.36       24.88       
C           92.28       15.29       25.65       
C           88.88       17.19       19.51       
C           88.68       15.95       20.05       
S           89.95       18.13       20.54       
H           89.6        14.71       21.54       
H           88.16       15.15       19.58       
C           89.46       15.68       21.19       
C           90.11       16.81       21.68       
C           88.12       18.58       15.33       
C           87.51       17.5        15.91       
C           88.76       19.31       16.26       
N           86.93       15.92       17.4        
N           86.39       15.74       16.2        
N           86.7        16.61       15.25       
C           85.42       14.72       16.04       
H           89.17       20.28       15.98       
H           89.55       19.6        18.2        
H           85.41286    14.05577    16.90421    
H           84.44       15.18       15.99       
H           85.58726    14.13095    15.13825    
C           88.91       18.96       17.59       
C           87.61       17.08       17.26       
C           88.46       17.76       18.18       
C           89.08       20.16       11.83       
C           87.93       19.4        11.64       
S           89.41       20.19       13.47       
H           86.69       18.02       12.9        
H           87.43       19.27       10.64       
C           87.47       18.75       12.83       
C           88.15       19.04       13.95       
C           89.82       21.97       7.52        
C           90.28       21.81       8.82        
N           88.47       21.68       7.54        
C           88.09       21.11       8.82        
C           91.43       22.07       9.71        
O           92.47       22.61       9.52        
O           86.89       20.78       8.91        
C           92.06       21.36       11.95       
C           87.43       22.27       6.7         
H           86.90093    21.48671    6.15719     
H           87.76       23.08       6.04        
H           86.66       22.77       7.32        
H           91.89       20.46       12.49       
H           92.01748    22.25295    12.57365    
H           93.08       21.24       11.5        
N           91.08       21.43       10.9        
C           89.35       21.17       9.6         
C           89.78       20.92       10.85       
C           91.8        24.7        5.5         
C           91.24       23.81       4.59        
S           91.28       24.34       7.12        
H           89.75       22.11       4.77        
H           91.46       23.87       3.57        
C           90.39       22.83       5.28        
C           90.46       22.9        6.64        
C           94.7        28.06       5.08        
C           93.98       27.46       3.95        
C           94.46       27.34       6.26        
N           92.68       26.05       2.77        
N           93.24       27.09       2.08        
N           94.17       27.74       2.65        
C           92.72       27.36       0.79        
H           94.9        27.68       7.17        
H           93.38       25.89       7.42        
H           92.05971    26.58155    0.40773     
H           92.26       28.31       0.77        
H           93.59219    27.42434    0.13943     
C           93.53       26.25       6.38        
C           93.16       26.31       4.05        
C           92.76       25.79       5.32        
C           96.74       31.47       4.31        
C           96.87       31.13       5.62        
S           95.66       30.37       3.57        
H           96.18       29.51       6.95        
H           97.47       31.78       6.33        
C           96.12       29.97       6.0         
C           95.51       29.31       4.98        
C           98.15       36.08       4.22        
C           97.99       34.91       3.58        
N           97.68       35.82       5.52        
C           97.16       34.53       5.65        
C           98.19       34.28       2.24        
O           98.44       34.77       1.18        
O           96.53       34.16       6.65        
C           98.31       31.91       1.67        
C           97.22       36.74       6.55        
H           98.03443    37.01376    7.22071     
H           96.75       37.59       6.15        
H           96.49       36.4        7.24        
H           97.63       31.12       1.58        
H           99.35261    31.73048    1.93238     
H           98.25       32.27       0.63        
N           97.74       32.96       2.47        
C           97.48       33.91       4.38        
C           97.21       32.69       3.74        
C           98.48       39.65       2.58        
C           99.17       39.6        3.81        
S           97.69       38.13       2.32        
H           99.74       37.97       5.27        
H           99.74       40.49       4.19        
C           99.24       38.3        4.35        
C           98.47       37.36       3.68        
C           98.07       42.91       -0.3        
C           98.28       43.16       1.06        
C           97.84       41.53       -0.62       
N           98.44       42.73       3.26        
N           98.55       44.01       2.99        
N           98.53       44.29       1.73        
C           98.23       45.11       3.95        
H           97.57       41.31       -1.68       
H           97.77       39.49       0.03        
H           98.04231    44.60055    4.89516     
H           99.08       45.79       4.02        
H           97.35126    45.61009    3.54278     
C           97.97       40.54       0.33        
C           98.29       42.12       2.06        
C           98.24       40.77       1.68        
C           97.23       45.93       -2.79       
C           97.97       44.99       -3.39       
S           97.1        45.42       -1.17       
H           98.9        43.02       -3.11       
H           98.18       45.0        -4.42       
C           98.33       43.81       -2.69       
C           97.96       43.91       -1.37       
C           93.89       49.28       -3.34       
C           94.72       48.41       -3.99       
N           94.36       49.42       -2.0        
C           95.45       48.55       -1.78       
C           94.98       47.64       -5.23       
O           94.37       47.65       -6.33       
O           96.03       48.49       -0.66       
C           96.74       46.15       -6.08       
C           94.19       50.54       -1.12       
H           95.0454     51.21417    -1.07651    
H           94.05       50.19       -0.06       
H           93.36       51.2        -1.47       
H           96.86       45.07       -5.9        
H           97.65819    46.66648    -6.35976    
H           96.03       46.04       -6.92       
N           96.03       46.72       -4.94       
C           95.62       47.86       -3.05       
C           96.37       46.81       -3.58       
C           90.68       51.29       -4.33       
C           91.15       50.57       -5.35       
S           91.52       50.8        -2.89       
H           92.78       49.3        -5.88       
H           90.63       50.4        -6.28       
C           92.31       49.86       -5.11       
C           92.71       50.0        -3.84       
C           87.85       54.45       -4.86       
C           88.02       53.93       -3.56       
C           88.4        53.73       -5.91       
N           88.86       52.64       -1.96       
N           88.21       53.65       -1.46       
N           87.6        54.43       -2.35       
C           87.76       53.54       -0.13       
H           88.39       54.1        -6.93       
H           89.89       52.32       -6.47       
H           88.25083    52.69157    0.34681     
H           87.93       54.47       0.29        
H           86.69017    53.33178    -0.11564    
C           89.28       52.67       -5.61       
C           88.9        52.87       -3.31       
C           89.57       52.24       -4.42       
C           86.08       58.0        -5.16       
C           86.43       57.5        -6.41       
S           86.79       56.91       -4.0        
H           87.31       55.85       -7.41       
H           86.28       58.11       -7.3        
C           87.06       56.27       -6.45       
C           87.29       55.73       -5.21       
C           83.44       61.87       -6.4        
C           83.96       61.04       -5.44       
N           83.52       61.07       -7.55       
C           84.37       59.94       -7.44       
C           84.18       61.01       -4.05       
O           83.87       61.7        -3.1        
O           84.58       59.22       -8.43       
C           85.85       59.85       -2.67       
C           82.41       60.82       -8.53       
H           81.86725    59.92781    -8.21773    
H           82.65       60.81       -9.56       
H           81.62       61.59       -8.37       
H           86.81       59.46       -2.97       
H           85.44196    59.29422    -1.82578    
H           86.04       60.92       -2.4        
N           85.02       59.82       -3.86       
C           84.68       59.96       -6.0        
C           85.31       59.17       -5.0        
C           81.09       64.9        -5.53       
C           81.44       65.01       -6.81       
S           81.73       63.48       -4.82       
H           82.84       63.9        -8.24       
H           81.04       65.82       -7.35       
C           82.35       64.01       -7.21       
C           82.64       63.07       -6.21       
C           78.43       67.47       -3.17       
C           79.08       67.98       -4.34       
C           78.76       66.13       -2.9        
N           80.64       68.06       -6.01       
N           79.96       69.17       -5.77       
N           78.91       69.15       -4.97       
C           80.65       70.38       -6.24       
H           78.23       65.62       -2.06       
H           79.76       64.31       -3.4        
H           81.46695    70.08358    -6.8979     
H           79.91       71.13       -6.59       
H           81.1009     70.83806    -5.35967    
C           79.64       65.4        -3.67       
C           80.05       67.21       -5.07       
C           80.31       65.85       -4.76       
C           74.84       68.87       -2.05       
C           75.57       68.55       -0.91       
S           75.83       68.73       -3.45       
H           77.54       67.44       -0.64       
H           75.13       68.53       0.07        
C           76.86       67.96       -1.28       
C           77.22       68.06       -2.57       
C           70.27       69.22       -0.5        
C           71.19       69.41       -1.53       
N           70.95       68.72       0.56        
C           72.31       68.61       0.22        
C           71.29       69.89       -2.91       
O           70.49       70.37       -3.72       
O           73.06       68.27       1.11        
C           73.04       69.74       -4.69       
C           70.5        67.7        1.43        
H           70.81371    66.74462    1.00935     
H           69.41       67.66       1.43        
H           70.9        67.84       2.36        
H           73.83       69.06       -4.94       
H           73.34268    70.74658    -4.9786     
H           72.21       69.42       -5.32       
N           72.68       69.69       -3.27       
C           72.49       69.03       -1.15       
C           73.44       69.19       -2.2        
C           66.51       70.43       0.24        
C           66.9        70.65       -1.09       
S           67.86       69.7        1.03        
H           68.65       70.06       -2.44       
H           66.27       71.18       -1.78       
C           68.17       70.02       -1.46       
C           68.83       69.47       -0.42       
C           62.99       71.72       2.5         
C           63.29       72.37       1.26        
C           63.89       70.85       2.95        
N           64.55       72.91       -0.6        
N           63.35       73.45       -0.58       
N           62.61       73.34       0.56        
C           62.82       73.97       -1.75       
H           63.63       70.3        3.82        
H           65.65       69.61       2.61        
H           63.57689    74.07321    -2.52754    
H           61.99       73.32       -2.17       
H           62.23811    74.86737    -1.53968    
C           65.05       70.42       2.24        
C           64.55       72.13       0.55        
C           65.43       71.04       0.99        
C           59.27       72.19       3.98        
C           60.12       71.78       4.97        
S           60.23       72.32       2.53        
H           62.24       71.14       5.22        
H           59.73       71.62       5.9         
C           61.49       71.57       4.6         
C           61.73       71.87       3.24        
C           54.87       71.43       5.82        
C           55.64       71.73       4.77        
N           55.68       71.28       6.95        
C           57.05       71.62       6.63        
C           55.62       72.13       3.32        
O           54.73       72.21       2.5         
O           57.93       71.59       7.45        
C           57.16       73.4        2.01        
C           55.42       71.02       8.37        
H           55.7525     70.03665    8.7025      
H           55.84       71.8        9.06        
H           54.32       71.02       8.53        
H           57.89       73.04       1.25        
H           57.5136     74.31935    2.47675     
H           56.23       73.51       1.41        
N           56.97       72.46       3.07        
C           57.05       71.96       5.21        
C           57.82       72.22       4.15        
C           51.25       69.94       5.74        
C           51.45       70.65       4.68        
S           52.64       70.12       6.82        
H           52.87       72.14       3.86        
H           50.78       70.64       3.84        
C           52.59       71.52       4.72        
C           53.46       71.27       5.78        
C           48.17       66.78       6.31        
C           47.98       67.85       5.41        
C           49.4        66.86       6.97        
N           48.4        69.77       4.36        
N           47.21       69.23       4.05        
N           46.9        68.18       4.7         
C           46.5        69.55       2.84        
H           49.65       66.04       7.66        
H           51.26       67.72       7.29        
H           46.83596    70.55073    2.56837     
H           46.52       68.82       2.02        
H           45.4227     69.6067     2.99592     
C           50.39       67.84       6.64        
C           49.01       68.8        5.13        
C           50.22       68.92       5.88        
C           45.96       63.88       7.85        
C           45.42       64.18       6.67        
S           47.29       64.86       8.22        
H           45.63       65.73       5.12        
H           44.47       63.69       6.25        
C           46.05       65.31       6.07        
C           47.18       65.71       6.68        
C           46.1        60.59       11.25       
C           45.35       61.4        10.4        
N           47.35       60.71       10.7        
C           47.46       61.61       9.58        
C           43.92       61.87       10.2        
O           42.84       61.65       10.74       
O           48.53       62.05       9.16        
C           43.11       64.03       9.07        
C           48.59       60.21       11.19       
H           48.8355     59.228      10.78565    
H           49.36       60.92       11.02       
H           48.56       60.16       12.28       
H           43.12       64.39       8.09        
H           43.13825    64.83498    9.80437     
H           42.18       63.52       9.17        
N           44.13       63.01       9.31        
C           46.14       62.15       9.5         
C           45.39       63.01       8.76        
C           45.47       57.74       14.05       
C           44.32       58.03       13.38       
S           46.67       58.87       13.56       
H           43.63       59.52       11.82       
H           43.41       57.43       13.44       
C           44.41       59.08       12.38       
C           45.7        59.56       12.27       
C           46.12       54.96       17.43       
C           45.23       54.67       16.38       
C           46.78       56.14       17.24       
N           44.1        54.9        14.38       
N           43.84       53.68       15.0        
N           44.4        53.63       16.16       
C           42.89       52.73       14.45       
H           47.4        56.49       18.01       
H           47.13       57.92       16.23       
H           42.65019    52.95527    13.41084    
H           43.31       51.73       14.38       
H           41.99802    52.70123    15.07582    
C           46.61       56.98       16.09       
C           45.03       55.48       15.18       
C           45.79       56.68       15.0        
C           47.09       52.26       20.19       
C           47.34       53.51       20.64       
S           46.39       52.43       18.59       
H           47.16       55.66       20.01       
H           47.77       53.69       21.62       
C           46.89       54.59       19.76       
C           46.28       54.19       18.64       
C           50.18       49.48       22.59       
C           49.0        49.63       21.95       
N           50.71       50.8        22.7        
C           49.8        51.79       22.15       
C           47.77       48.85       21.55       
O           47.37       47.71       21.73       
O           50.21       52.92       21.91       
C           45.68       49.41       20.29       
C           51.84       51.32       23.47       
H           51.4416     51.80533    24.36097    
H           52.51       52.02       22.95       
H           52.48       50.58       23.98       
H           45.6        49.46       19.2        
H           44.87295    49.8826     20.84984    
H           45.76       48.33       20.4        
N           46.94       49.81       20.81       
C           48.73       51.0        21.54       
C           47.64       51.01       20.67       
C           51.61       46.48       24.61       
C           50.82       46.08       23.59       
S           51.82       48.21       24.44       
H           49.41       46.91       22.08       
H           50.45       45.06       23.56       
C           50.26       47.08       22.76       
C           50.75       48.31       23.09       
C           52.95       43.77       27.81       
C           53.69       44.97       27.49       
C           51.76       43.59       27.09       
N           54.11       46.94       26.43       
N           55.0        46.65       27.37       
N           54.84       45.48       28.05       
C           56.18       47.49       27.43       
H           51.16       42.69       27.16       
H           50.63       44.09       25.46       
H           56.31761    48.01978    26.4874     
H           55.95       48.19       28.27       
H           57.07918    46.93336    27.69405    
C           51.43       44.45       26.03       
C           53.2        45.9        26.48       
C           52.07       45.61       25.67       
C           53.53       41.04       30.55       
C           54.69       41.74       30.46       
S           52.39       41.53       29.33       
H           55.55       43.37       29.26       
H           55.48       41.65       31.1        
C           54.67       42.74       29.43       
C           53.43       42.81       28.74       
C           54.95       37.93       33.92       
C           53.88       38.49       33.26       
N           56.11       38.32       33.23       
C           55.77       39.12       32.04       
C           52.41       38.65       33.22       
O           51.52       38.12       33.8        
O           56.63       39.52       31.26       
C           50.71       39.7        31.71       
C           57.51       38.35       33.55       
H           57.78378    39.33561    33.92645    
H           58.13       38.01       32.67       
H           57.64       37.68       34.34       
H           50.42       39.89       30.67       
H           50.203      40.48223    32.27495    
H           50.31       38.76       31.88       
N           52.18       39.56       32.09       
C           54.36       39.29       32.16       
C           53.3        39.93       31.5        
C           55.12       36.05       37.43       
C           53.89       36.56       37.2        
S           56.2        36.52       36.12       
H           52.84       37.82       35.73       
H           53.09       36.41       37.9        
C           53.76       37.25       35.97       
C           54.93       37.29       35.21       
C           56.22       34.23       41.29       
C           57.14       34.29       40.23       
C           54.98       34.6        40.94       
N           57.92       34.58       38.16       
N           58.81       34.17       39.03       
N           58.46       33.93       40.24       
C           60.13       33.92       38.48       
H           54.14       34.49       41.72       
H           53.64       35.47       39.57       
H           60.32621    32.84783    38.47299    
H           60.76       34.55       39.04       
H           60.15889    34.26673    37.44702    
C           54.69       35.16       39.7        
C           56.83       34.81       38.93       
C           55.56       35.38       38.63       
H           93.67       14.74       30.46       
H           56.35       33.54       42.12       
