472

C           34.88       33.0        48.81       
C           35.0        33.21       47.46       
S           33.69       31.75       49.08       
H           34.01       32.51       45.53       
H           35.59       33.94       47.0        
C           34.12       32.43       46.67       
C           33.5        31.4        47.36       
C           37.42       36.89       50.37       
C           36.77       35.67       50.6        
N           37.08       37.16       49.06       
C           36.3        36.15       48.37       
C           36.43       34.74       51.71       
O           36.7        34.76       52.87       
O           35.86       36.27       47.24       
C           34.76       33.02       52.08       
C           37.97       37.92       48.13       
H           38.62609    37.23374    47.59457    
H           38.61       38.66       48.64       
H           37.39       38.47       47.39       
H           34.81       31.93       52.07       
H           33.72189    33.34441    52.00791    
H           35.12       33.25       53.1        
N           35.6        33.72       51.12       
C           36.11       35.19       49.43       
C           35.44       33.93       49.77       
C           39.63       39.47       52.54       
C           39.19       38.45       53.25       
S           38.9        39.27       50.93       
H           38.25       36.43       52.98       
H           39.43       38.41       54.32       
C           38.61       37.35       52.55       
C           38.32       37.65       51.3        
C           41.1        43.39       53.99       
C           41.18       43.06       52.65       
C           40.6        42.41       54.79       
N           40.96       41.69       50.79       
N           41.53       42.86       50.57       
N           41.67       43.74       51.59       
C           41.9        43.14       49.22       
H           40.72       42.48       55.91       
H           39.99       40.32       55.04       
H           41.76295    42.27657    48.569      
H           41.22       43.87       48.85       
H           42.91496    43.53716    49.20529    
C           40.16       41.12       54.29       
C           40.7        41.77       52.11       
C           40.14       40.78       52.95       
C           41.84       46.72       55.97       
C           42.47       46.86       54.76       
S           40.96       45.26       56.06       
H           42.63       45.67       52.92       
H           42.97       47.74       54.41       
C           42.33       45.66       53.98       
C           41.56       44.67       54.57       
C           40.42       48.25       60.13       
C           40.74       48.59       58.9        
N           40.41       46.87       60.32       
C           41.03       46.3        59.12       
C           40.87       49.72       57.99       
O           40.61       50.89       58.02       
O           41.41       45.14       59.13       
C           41.58       49.92       55.63       
C           39.6        45.88       61.06       
H           38.90669    45.44942    60.33749    
H           39.02       46.29       61.9        
H           40.2        45.16       61.52       
H           41.26       49.44       54.66       
H           42.61736    50.19957    55.44607    
H           41.05       50.86       55.75       
N           41.45       49.14       56.77       
C           41.22       47.43       58.22       
C           41.62       47.72       56.96       
C           37.57       49.76       62.14       
C           38.54       49.18       62.98       
S           38.22       49.93       60.54       
H           40.51       48.26       62.82       
H           38.48       49.09       64.05       
C           39.68       48.75       62.34       
C           39.64       49.05       61.03       
C           33.4        51.13       63.17       
C           34.32       50.74       64.14       
C           33.97       51.04       61.88       
N           36.2        49.79       64.99       
N           35.29       50.09       65.93       
N           34.18       50.54       65.44       
C           35.46       49.62       67.27       
H           33.44       51.28       61.04       
H           35.85       50.84       60.69       
H           36.52341    49.54863    67.49838    
H           35.02       50.41       67.92       
H           34.87097    48.72208    67.45677    
C           35.45       50.74       61.69       
C           35.72       50.27       63.86       
C           36.28       50.27       62.61       
C           29.41       51.85       63.12       
C           29.81       51.39       64.32       
S           30.84       51.91       62.13       
H           31.64       50.77       65.39       
H           29.11       51.25       65.15       
C           31.2        51.14       64.48       
C           31.97       51.38       63.39       
C           24.7        51.92       63.4        
C           25.82       52.36       62.77       
N           25.09       51.02       64.4        
C           26.52       50.95       64.48       
C           26.27       53.18       61.66       
O           25.69       53.85       60.83       
O           27.12       50.08       65.18       
C           28.43       53.86       60.85       
C           24.32       50.31       65.43       
H           24.20028    50.97904    66.28215    
H           23.3        50.05       65.16       
H           24.71       49.3        65.62       
H           29.07       53.24       60.3        
H           28.96639    54.6756     61.33495    
H           27.79       54.38       60.17       
N           27.7        53.08       61.73       
C           26.96       51.72       63.39       
C           28.05       52.12       62.67       
C           20.83       52.54       62.71       
C           21.55       53.0        61.64       
S           21.86       51.93       63.94       
H           23.57       53.06       61.02       
H           21.04       53.51       60.8        
C           22.95       52.86       61.84       
C           23.32       52.18       62.96       
C           16.51       52.01       63.48       
C           17.02       52.52       62.25       
C           17.51       51.81       64.43       
N           18.46       53.04       60.62       
N           17.24       53.06       60.22       
N           16.36       52.69       61.11       
C           17.05       53.56       58.84       
H           17.23       51.52       65.44       
H           19.55       51.72       65.05       
H           17.99872    53.63788    58.309      
H           16.35       52.87       58.34       
H           16.63566    54.56727    58.88286    
C           18.9        51.96       64.21       
C           18.44       52.62       61.92       
C           19.4        52.38       62.93       
C           12.5        51.51       63.53       
C           13.04       50.97       64.64       
S           13.84       52.05       62.55       
H           15.11       50.75       65.51       
H           12.53       50.53       65.44       
C           14.45       51.14       64.72       
C           15.07       51.75       63.74       
C           8.57        52.54       60.89       
C           9.1         51.84       61.96       
N           9.49        53.47       60.49       
C           10.77       53.2        61.2        
C           8.87        50.84       62.98       
O           7.92        50.23       63.3        
O           11.74       53.76       60.78       
C           10.22       49.28       64.18       
C           9.21        54.85       60.05       
H           9.18857     55.46436    60.95011    
H           8.3         54.93       59.5        
H           10.01       55.27       59.42       
H           11.05       49.19       64.96       
H           10.23419    48.54932    63.37129    
H           9.26        49.16       64.66       
N           10.14       50.65       63.6        
C           10.49       52.21       62.19       
C           11.08       51.49       63.11       
C           5.3         52.11       58.79       
C           5.03        51.5        60.02       
S           6.78        53.05       58.81       
H           6.1         51.32       62.0        
H           4.16        50.94       60.29       
C           6.13        51.75       60.97       
C           7.21        52.41       60.39       
C           3.08        52.0        55.09       
C           2.57        51.4        56.21       
C           4.25        52.58       55.15       
N           2.44        50.7        58.25       
N           1.34        50.44       57.53       
N           1.36        50.86       56.27       
C           0.08        49.87       58.18       
H           4.74        53.01       54.22       
H           5.82        53.29       56.37       
H           0.37147     49.48832    59.1585     
H           -0.61       50.74       58.31       
H           -0.36128    49.15115    57.48962    
C           4.89        52.77       56.42       
C           3.27        51.39       57.43       
C           4.51        52.04       57.53       
C           1.8         52.57       51.43       
C           1.48        51.24       51.74       
S           2.54        53.3        52.82       
H           1.52        49.98       53.53       
H           0.96        50.59       51.03       
C           1.7         50.95       53.1        
C           2.4         51.93       53.81       
C           2.27        56.02       48.13       
C           2.28        54.66       48.41       
N           2.08        56.73       49.33       
C           1.75        55.76       50.34       
C           2.41        53.33       47.86       
O           2.83        52.95       46.79       
O           1.49        56.13       51.46       
C           3.23        51.29       48.95       
C           1.44        58.03       49.51       
H           0.35539     57.92809    49.4736     
H           1.78        58.8        48.8        
H           1.72        58.33       50.52       
H           2.8         50.47       49.52       
H           4.26122     51.48913    49.24159    
H           3.34        51.06       47.89       
N           2.37        52.41       49.03       
C           1.91        54.46       49.78       
C           1.87        53.08       50.14       
C           3.28        58.21       45.01       
C           2.81        56.98       44.64       
S           3.21        58.32       46.75       
H           1.85        55.25       45.61       
H           2.94        56.64       43.62       
C           2.37        56.19       45.72       
C           2.43        56.73       46.93       
C           5.81        60.99       42.61       
C           5.12        59.91       42.02       
C           5.5         61.12       43.93       
N           3.85        58.02       41.96       
N           4.39        58.35       40.82       
N           5.22        59.34       40.82       
C           4.2         57.53       39.64       
H           5.96        61.91       44.46       
H           4.67        60.49       45.76       
H           3.62838     56.6183     39.81366    
H           3.78        58.14       38.85       
H           5.1797      57.36672    39.19097    
C           4.67        60.29       44.69       
C           4.28        59.04       42.8        
C           3.98        59.2        44.22       
C           7.93        63.26       40.14       
C           8.07        63.67       41.39       
S           6.81        61.92       40.15       
H           7.44        63.04       43.36       
H           8.81        64.4        41.67       
C           7.37        62.88       42.35       
C           6.63        61.9        41.87       
C           10.32       66.53       37.54       
C           9.68        65.29       37.62       
N           10.46       66.96       38.87       
C           9.69        66.18       39.77       
C           9.27        64.15       36.86       
O           9.37        63.82       35.68       
O           9.43        66.58       40.91       
C           7.75        62.2        37.16       
C           11.48       67.83       39.4        
H           12.20772    67.36369    40.06414    
H           11.06       68.64       39.84       
H           12.08       68.2        38.58       
H           6.87        61.92       37.65       
H           8.29911     61.25866    37.13861    
H           7.51        62.43       36.13       
N           8.47        63.34       37.74       
C           9.22        65.03       38.97       
C           8.47        63.88       39.0        
C           11.72       68.74       34.5        
C           11.74       67.45       34.08       
S           11.13       68.88       36.1        
H           11.32       65.43       35.09       
H           12.22       67.12       33.15       
C           11.35       66.51       35.14       
C           10.99       67.16       36.34       
C           13.4        72.33       32.52       
C           13.78       71.05       32.17       
C           12.35       72.36       33.4        
N           13.86       68.8        32.27       
N           14.72       69.33       31.45       
N           14.69       70.64       31.21       
C           15.93       68.57       31.13       
H           11.9        73.32       33.63       
H           11.24       71.2        34.98       
H           15.73503    67.49767    31.14393    
H           16.31       68.84       30.21       
H           16.68882    68.88327    31.84705    
C           11.9        71.15       34.1        
C           13.24       69.79       32.78       
C           12.31       69.85       33.8        
C           13.75       75.89       30.72       
C           14.75       75.11       30.28       
S           12.76       74.97       31.73       
H           15.65       73.14       30.7        
H           15.48       75.48       29.62       
C           14.82       73.8        30.88       
C           13.75       73.56       31.69       
C           13.45       79.68       27.63       
C           12.97       78.96       28.71       
N           14.61       79.03       27.24       
C           14.92       77.87       28.02       
C           11.86       78.9        29.62       
O           10.91       79.59       29.86       
O           15.84       77.09       27.83       
C           11.57       77.93       31.81       
C           15.42       79.32       26.1        
H           16.01124    80.21043    26.3137     
H           16.13       78.44       25.94       
H           14.84       79.33       25.1        
H           12.19       77.52       32.6        
H           10.56447    77.51392    31.87241    
H           11.56       79.0        32.06       
N           12.15       77.8        30.47       
C           13.85       77.84       29.03       
C           13.38       77.13       30.12       
C           10.79       82.27       26.22       
C           11.9        82.42       25.52       
S           10.99       80.82       27.05       
H           14.06       81.89       25.56       
H           11.93       83.13       24.67       
C           13.07       81.7        25.95       
C           12.75       80.84       27.03       
C           6.81        84.03       26.0        
C           7.88        84.5        25.18       
C           7.19        83.11       27.02       
N           9.82        84.43       24.18       
N           9.0         85.38       23.72       
N           7.86        85.51       24.29       
C           9.45        86.41       22.68       
H           6.45        82.8        27.75       
H           8.65        81.79       27.84       
H           10.51338    86.29732    22.46873    
H           8.87        86.26       21.78       
H           9.22001     87.38744    23.10404    
C           8.57        82.6        27.11       
C           9.16        83.9        25.23       
C           9.5         82.88       26.16       
C           3.29        85.93       26.17       
C           3.11        84.54       26.02       
S           4.99        86.19       26.25       
H           4.32        82.67       25.81       
H           2.15        84.11       25.94       
C           4.33        83.78       25.87       
C           5.45        84.52       25.92       
C           -0.86       87.39       24.36       
C           0.27        87.66       25.1        
N           -0.55       86.06       23.78       
C           0.72        85.62       24.15       
C           0.69        88.59       26.13       
O           0.26        89.7        26.48       
O           1.2         84.64       23.73       
C           2.73        88.89       27.43       
C           -1.25       85.25       22.83       
H           -1.35114    85.80625    21.89809    
H           -0.71       84.38       22.6        
H           -2.22       84.91       23.29       
H           3.8         88.84       27.17       
H           2.43846     88.57713    28.43261    
H           2.48        89.91       27.25       
N           2.0         88.11       26.49       
C           1.2         86.6        25.13       
C           2.21        86.88       25.91       
C           -4.53       88.68       24.54       
C           -3.62       89.68       24.92       
S           -3.58       87.37       23.99       
H           -1.45       90.05       25.06       
H           -4.06       90.69       25.22       
C           -2.29       89.37       24.87       
C           -2.05       88.14       24.29       
C           -8.78       88.39       23.82       
C           -8.09       89.62       23.88       
C           -7.95       87.31       24.15       
N           -6.43       91.05       24.13       
N           -7.62       91.65       23.86       
N           -8.64       90.84       23.67       
C           -7.76       93.09       23.93       
H           -8.4        86.33       24.25       
H           -6.06       86.48       24.53       
H           -7.20224    93.45441    24.79267    
H           -7.37       93.56       23.0        
H           -8.78731    93.45173    23.97341    
C           -6.6        87.42       24.28       
C           -6.72       89.75       24.1        
C           -5.9        88.62       24.24       
C           -12.54      87.17       23.18       
C           -12.44      88.49       22.91       
S           -10.95      86.65       23.58       
H           -10.89      90.15       23.03       
H           -13.29      89.13       22.87       
C           -11.13      89.09       23.05       
C           -10.2       88.21       23.55       
C           -17.26      86.07       22.83       
C           -15.98      85.7        23.08       
N           -17.19      87.4        22.42       
C           -15.83      87.9        22.4        
C           -15.18      84.6        23.62       
O           -15.56      83.46       23.92       
O           -15.54      89.11       22.19       
C           -12.84      84.19       24.28       
C           -18.11      88.08       21.59       
H           -17.71482   88.28465    20.59499    
H           -18.53      88.99       22.05       
H           -19.01      87.49       21.48       
H           -12.13      84.66       25.0        
H           -12.31177   83.67624    23.4768     
H           -13.4       83.48       24.9        
N           -13.83      85.12       23.74       
C           -15.03      86.79       22.89       
C           -13.75      86.42       23.24       
C           -20.71      84.58       24.09       
C           -19.75      84.03       24.83       
S           -20.1       85.64       22.94       
H           -17.52      84.34       24.96       
H           -19.86      83.34       25.6        
C           -18.44      84.52       24.41       
C           -18.48      85.47       23.46       
C           -25.03      84.31       24.88       
C           -24.21      83.25       25.33       
C           -24.41      85.36       24.15       
N           -22.26      82.2        25.56       
N           -23.21      81.69       26.31       
N           -24.44      82.25       26.19       
C           -22.95      80.82       27.43       
H           -24.92      86.25       23.91       
H           -22.62      86.22       23.37       
H           -22.27453   80.03558    27.08863    
H           -22.39      81.32       28.22       
H           -23.83636   80.33323    27.83685    
C           -23.02      85.32       23.9        
C           -22.78      83.29       25.01       
C           -22.11      84.36       24.3        
C           -28.8       84.01       26.28       
C           -28.66      85.25       25.74       
S           -27.38      83.1        25.86       
H           -27.21      86.42       24.64       
H           -29.49      85.87       25.71       
C           -27.4       85.45       25.12       
C           -26.53      84.41       25.2        
C           -33.26      84.41       28.26       
C           -32.19      83.58       27.91       
N           -33.1       85.52       27.54       
C           -31.74      85.63       27.1        
C           -31.64      82.23       27.98       
O           -32.18      81.29       28.45       
O           -31.44      86.73       26.59       
C           -29.38      81.29       27.8        
C           -34.06      86.56       27.25       
H           -34.13747   86.75015    26.17951    
H           -33.92      87.57       27.77       
H           -35.02      86.15       27.6        
H           -28.45      81.65       28.1        
H           -29.35242   80.46953    27.08295    
H           -29.78      80.96       28.73       
N           -30.29      82.31       27.37       
C           -31.26      84.31       27.12       
C           -30.07      83.56       26.86       
C           -36.26      84.01       30.82       
C           -35.81      82.76       30.4        
S           -35.28      85.19       30.09       
H           -34.26      81.97       29.14       
H           -36.28      81.85       30.78       
C           -34.74      82.84       29.5        
C           -34.44      84.07       29.05       
C           -39.62      85.03       33.5        
C           -38.23      85.2        33.82       
C           -39.8       84.53       32.2        
N           -36.02      84.93       33.61       
N           -36.35      85.5        34.72       
N           -37.63      85.67       34.98       
C           -35.33      86.11       35.55       
H           -40.78      84.34       31.77       
H           -38.86      83.95       30.41       
H           -34.60513   86.56482    34.87487    
H           -34.82      85.3        36.11       
H           -35.77887   86.85581    36.20604    
C           -38.65      84.25       31.41       
C           -37.19      84.72       33.01       
C           -37.39      84.26       31.74       
H           33.34       30.41       46.96       
H           -40.24      84.57       34.32       
