472

C           37.58       41.59       42.88       
C           36.44       42.37       42.96       
S           37.2        40.23       41.89       
H           34.36       42.38       42.24       
H           36.25       43.28       43.55       
C           35.32       41.89       42.2        
C           35.58       40.73       41.58       
C           40.07       43.33       46.56       
C           40.04       42.51       45.45       
N           39.11       44.28       46.35       
C           38.33       44.03       45.19       
C           40.71       41.38       44.88       
O           41.69       40.73       45.08       
O           37.2        44.53       45.11       
C           40.27       39.82       42.94       
C           39.29       45.67       46.66       
H           39.75199    46.18332    45.81669    
H           39.87       45.73       47.55       
H           38.25       46.04       46.97       
H           40.02       40.04       41.89       
H           39.89657    38.83802    43.23045    
H           41.36       39.86       42.93       
N           39.82       40.96       43.79       
C           38.91       42.83       44.64       
C           38.75       41.81       43.68       
C           42.28       43.82       49.79       
C           42.79       42.84       49.0        
S           40.74       44.21       49.17       
H           42.46       41.84       47.14       
H           43.77       42.44       49.15       
C           42.06       42.53       47.85       
C           40.95       43.3        47.69       
C           43.8        45.93       53.42       
C           44.58       44.91       52.73       
C           42.49       46.06       52.88       
N           45.0        43.3        51.23       
N           46.08       43.63       51.99       
N           45.77       44.37       53.01       
C           47.14       42.62       52.14       
H           41.79       46.87       53.23       
H           40.95       45.48       51.52       
H           46.95495    41.80442    51.44093    
H           48.03       43.16       52.01       
H           47.26003    42.30934    53.17788    
C           42.01       45.29       51.76       
C           44.08       44.2        51.59       
C           42.81       44.38       51.0        
C           45.61       48.08       56.27       
C           44.37       48.59       56.03       
S           45.91       46.82       55.06       
H           42.59       48.16       54.81       
H           43.96       49.46       56.51       
C           43.61       47.84       55.09       
C           44.27       46.82       54.44       
C           47.32       50.74       59.79       
C           47.52       49.67       58.92       
N           46.28       51.52       59.3        
C           45.64       50.74       58.27       
C           48.41       48.49       58.71       
O           49.46       48.15       59.25       
O           44.65       51.17       57.74       
C           48.72       47.18       56.7        
C           46.2        52.98       59.06       
H           46.67751    53.37199    58.16199    
H           46.74       53.56       59.87       
H           45.13       53.2        58.99       
H           48.54       47.36       55.65       
H           48.67117    46.11278    56.91623    
H           49.7        47.55       57.08       
N           47.82       47.97       57.46       
C           46.48       49.59       57.98       
C           46.6        48.57       57.18       
C           49.06       52.24       63.06       
C           49.75       51.12       62.61       
S           47.75       52.52       62.0        
H           49.7        49.76       60.93       
H           50.6        50.79       63.16       
C           49.22       50.55       61.43       
C           48.12       51.17       60.93       
C           49.3        55.28       66.3        
C           50.47       54.48       65.97       
C           48.2        54.89       65.58       
N           51.69       52.96       64.81       
N           52.33       53.43       65.83       
N           51.69       54.38       66.56       
C           53.27       52.54       66.45       
H           47.27       55.45       65.72       
H           47.17       53.85       64.25       
H           53.41499    51.65627    65.82863    
H           54.2        53.12       66.56       
H           52.86411    52.28807    67.42974    
C           48.16       53.91       64.68       
C           50.42       53.43       64.98       
C           49.22       53.14       64.2        
C           48.5        58.39       68.58       
C           49.78       58.07       68.82       
S           47.73       57.17       67.55       
H           51.19       56.65       68.05       
H           50.38       58.74       69.46       
C           50.17       56.95       68.08       
C           49.26       56.41       67.24       
C           47.97       62.96       69.98       
C           47.37       61.73       69.69       
N           49.4        62.7        69.85       
C           49.68       61.36       69.37       
C           46.11       61.1        69.61       
O           44.94       61.47       69.72       
O           50.74       60.97       69.03       
C           45.33       58.77       69.01       
C           50.46       63.67       69.82       
H           50.41536    64.19827    68.86762    
H           50.46       64.26       70.75       
H           51.46       63.2        69.87       
H           45.6        57.71       69.3        
H           44.76963    58.94185    68.091      
H           44.78       59.01       69.88       
N           46.39       59.75       69.1        
C           48.34       60.78       69.26       
C           47.78       59.56       68.9        
C           46.66       66.39       71.44       
C           45.75       65.4        71.72       
S           48.1        65.66       70.9        
H           45.5        63.24       71.42       
H           44.77       65.62       72.12       
C           46.13       64.13       71.2        
C           47.35       64.09       70.68       
C           46.17       70.71       71.67       
C           45.3        69.82       72.29       
C           47.31       70.06       71.18       
N           44.36       67.87       72.86       
N           43.73       68.94       73.26       
N           44.19       70.15       72.87       
C           42.68       68.87       74.21       
H           48.03       70.71       70.74       
H           48.3        68.28       70.5        
H           41.78778    68.43783    73.75692    
H           43.05       68.24       75.04       
H           42.46135    69.85041    74.6332     
C           47.43       68.69       71.09       
C           45.41       68.43       72.22       
C           46.48       67.85       71.63       
C           45.99       74.57       72.7        
C           46.37       74.42       71.4        
S           45.71       72.93       73.36       
H           46.88       72.94       69.91       
H           46.74       75.23       70.82       
C           46.44       73.12       70.89       
C           46.06       72.16       71.8        
C           45.82       79.34       73.33       
C           45.91       78.1        73.86       
N           45.97       79.14       71.94       
C           45.94       77.75       71.65       
C           45.98       77.37       75.16       
O           45.8        77.69       76.32       
O           45.77       77.33       70.51       
C           46.19       75.03       75.93       
C           46.46       80.07       70.94       
H           47.34283    79.61093    70.49506    
H           46.61       81.05       71.34       
H           45.82       80.33       70.13       
H           47.02       74.39       75.66       
H           45.24767    74.55524    76.20335    
H           46.45       75.64       76.77       
N           46.02       75.97       74.81       
C           45.77       77.05       72.94       
C           45.83       75.79       73.46       
C           45.69       82.91       75.05       
C           46.15       82.03       75.91       
S           45.43       82.18       73.44       
H           46.79       79.91       75.95       
H           46.42       82.4        76.91       
C           46.31       80.76       75.36       
C           45.95       80.62       74.06       
C           44.9        87.31       75.58       
C           45.94       86.62       76.23       
C           44.2        86.39       74.78       
N           47.28       84.87       76.79       
N           47.62       86.05       77.34       
N           46.77       87.09       77.17       
C           48.41       85.91       78.59       
H           43.23       86.78       74.38       
H           43.68       84.38       74.05       
H           49.1434     85.11189    78.47496    
H           48.88       86.91       78.8        
H           47.73139    85.76862    79.43119    
C           44.37       84.98       74.64       
C           46.24       85.24       76.02       
C           45.46       84.35       75.22       
C           43.07       90.79       76.39       
C           44.42       90.93       76.64       
S           42.88       89.27       75.5        
H           46.23       89.63       76.62       
H           44.79       91.75       77.27       
C           45.17       89.73       76.34       
C           44.48       88.66       75.83       
C           41.57       95.15       77.83       
C           41.27       93.87       77.4        
N           42.84       95.34       77.46       
C           43.53       94.1        77.15       
C           40.19       92.86       77.24       
O           39.06       92.99       77.55       
O           44.68       94.07       76.87       
C           39.96       90.48       76.23       
C           43.53       96.55       77.06       
H           44.20143    96.83463    77.8701     
H           42.7        97.3        76.9        
H           44.06       96.48       76.13       
H           40.39       89.54       76.52       
H           39.79796    90.48       75.15211    
H           39.01       90.58       76.69       
N           40.78       91.65       76.69       
C           42.46       93.17       76.92       
C           42.11       91.82       76.61       
C           39.76       98.06       79.71       
C           38.87       97.17       79.33       
S           41.31       97.63       79.08       
H           38.76       95.25       78.29       
H           37.76       97.33       79.55       
C           39.38       96.06       78.63       
C           40.71       96.16       78.39       
C           39.37       101.4       82.52       
C           38.26       100.7       81.96       
C           40.55       100.96      81.96       
N           37.13       99.2        80.78       
N           36.39       99.91       81.59       
N           37.01       100.84      82.31       
C           35.02       99.59       81.84       
H           41.43       101.34      82.3        
H           41.73       99.54       80.78       
H           34.83233    98.52175    81.73173    
H           34.77       99.9        82.85       
H           34.36254    100.19029   81.21112    
C           40.71       99.92       80.98       
C           38.37       99.68       80.95       
C           39.59       99.22       80.51       
C           38.85       104.36      85.12       
C           40.14       104.02      85.15       
S           38.02       103.48      83.9        
H           41.37       102.32      84.35       
H           40.86       104.49      85.79       
C           40.43       102.87      84.38       
C           39.39       102.45      83.57       
C           35.64       107.54      86.72       
C           36.94       107.23      86.47       
N           34.85       106.5       86.24       
C           35.66       105.51      85.55       
C           38.23       107.76      86.61       
O           38.74       108.77      86.98       
O           35.2        104.44      85.12       
C           40.54       107.04      86.02       
C           33.37       106.5       85.93       
H           33.22937    106.52221   84.84934    
H           32.79       107.34      86.39       
H           32.85       105.63      86.34       
H           41.14       106.58      85.23       
H           41.04637    106.90449   86.97568    
H           40.66       108.13      85.81       
N           39.12       106.68      86.16       
C           37.01       105.92      85.82       
C           38.34       105.58      85.64       
C           33.97       110.51      88.72       
C           35.19       110.88      88.26       
S           33.66       108.87      88.17       
H           36.78       109.94      86.99       
H           35.64       111.87      88.45       
C           35.86       109.83      87.48       
C           35.13       108.74      87.31       
C           31.15       112.53      91.41       
C           32.17       113.27      90.8        
C           31.05       111.18      91.04       
N           34.02       113.48      89.6        
N           33.64       114.62      90.23       
N           32.53       114.57      91.0        
C           34.43       115.85      90.1        
H           30.33       110.53      91.5        
H           31.65       109.52      89.81       
H           35.11321    115.78595   89.25311    
H           33.7        116.63      89.96       
H           34.96006    115.99931   91.04066    
C           31.88       110.56      90.03       
C           33.07       112.6       89.89       
C           32.99       111.18      89.5        
C           29.23       112.99      94.84       
C           29.15       114.17      94.14       
S           30.24       111.85      93.99       
H           29.81       114.9       92.16       
H           28.53       114.94      94.57       
C           29.8        114.15      92.89       
C           30.42       112.95      92.6        
C           28.61       110.5       98.77       
C           28.03       111.4       97.86       
N           29.92       110.27      98.4        
C           30.29       111.11      97.26       
C           26.84       112.08      97.53       
O           25.75       111.98      97.98       
O           31.38       111.04      96.66       
C           26.17       113.29      95.45       
C           30.78       109.08      98.57       
H           30.44208    108.24928   97.95048    
H           31.78       109.47      98.21       
H           30.98       108.73      99.67       
H           26.2        112.92      94.44       
H           26.0552     114.36622   95.57915    
H           25.23       112.97      95.92       
N           27.21       112.86      96.39       
C           29.06       111.84      96.95       
C           28.56       112.74      96.09       
C           26.53       108.43      101.39      
C           27.82       108.46      101.76      
S           26.31       109.25      99.85       
H           29.61       109.48      101.17      
H           28.15       107.95      102.68      
C           28.6        109.3       100.94      
C           27.92       109.86      99.85       
C           22.93       106.4       103.11      
C           24.24       105.91      103.32      
C           22.88       107.5       102.32      
N           26.49       105.95      103.24      
N           26.03       104.96      103.95      
N           24.71       104.79      104.04      
C           26.89       103.82      104.26      
H           21.93       107.95      102.15      
H           23.85       109.1       101.46      
H           27.78978    103.86185   103.6462    
H           27.15       103.86      105.37      
H           26.44595    102.8431    104.06872   
C           24.03       108.1       101.78      
C           25.38       106.57      102.77      
C           25.35       107.63      101.82      
C           19.95       104.03      104.02      
C           19.44       105.27      104.07      
S           21.63       104.0       103.66      
H           20.3        107.26      103.42      
H           18.41       105.5       104.25      
C           20.39       106.22      103.6       
C           21.67       105.74      103.56      
C           16.14       101.49      105.45      
C           17.41       101.51      104.86      
N           15.87       102.83      105.92      
C           16.96       103.71      105.58      
C           18.36       100.64      104.12      
O           18.26       99.45       103.83      
O           16.98       104.83      105.96      
C           20.14       101.18      102.56      
C           15.04       103.19      107.01      
H           14.08728    103.52973   106.6038    
H           14.93       102.32      107.64      
H           15.49       103.9       107.68      
H           21.23       101.26      102.75      
H           19.80969    101.6961    101.65854   
H           19.89       100.11      102.44      
N           19.41       101.55      103.74      
C           17.98       102.84      104.89      
C           19.25       102.79      104.32      
C           14.63       98.09       106.62      
C           13.58       99.0        106.45      
S           16.19       98.84       106.4       
H           13.55       101.11      105.59      
H           12.56       98.75       106.75      
C           14.14       100.26      105.9       
C           15.44       100.31      105.77      
C           14.67       93.9        107.94      
C           13.5        94.65       107.8       
C           15.81       94.67       107.75      
N           12.05       96.27       107.4       
N           11.48       95.28       108.08      
N           12.26       94.26       108.29      
C           10.04       95.14       108.21      
H           16.78       94.28       107.83      
H           16.73       96.56       107.21      
H           9.60126     96.13778    108.20292   
H           9.57        94.52       107.46      
H           9.81232     94.66329    109.16342   
C           15.74       96.03       107.34      
C           13.39       95.98       107.42      
C           14.55       96.69       107.07      
C           15.8        90.54       109.49      
C           14.42       90.53       109.48      
S           16.33       92.03       108.76      
H           12.7        91.77       108.88      
H           13.87       89.66       109.75      
C           13.8        91.69       108.95      
C           14.73       92.55       108.49      
C           16.7        86.09       111.15      
C           17.16       87.32       110.86      
N           15.34       86.07       111.03      
C           14.91       87.37       110.6       
C           18.36       88.13       110.79      
O           19.54       87.85       111.03      
O           13.73       87.55       110.38      
C           18.72       90.66       110.31      
C           14.41       85.36       111.88      
H           14.39624    85.93084    112.80847   
H           14.73       84.4        112.1       
H           13.39       85.33       111.46      
H           18.11       91.55       110.66      
H           19.27754    90.86908    109.39702   
H           19.32       90.34       111.21      
N           17.9        89.45       110.26      
C           16.12       88.16       110.43      
C           16.62       89.41       109.96      
C           18.57       82.86       112.52      
C           19.28       83.98       112.75      
S           17.13       83.36       111.71      
H           19.42       86.05       112.32      
H           20.28       83.99       113.2       
C           18.77       85.18       112.23      
C           17.54       85.03       111.65      
C           19.19       78.46       113.3       
C           20.18       79.47       113.56      
C           18.01       78.97       112.88      
N           21.05       81.53       113.66      
N           21.88       80.59       114.05      
N           21.45       79.32       113.99      
C           23.05       80.89       114.89      
H           17.2        78.3        112.83      
H           16.81       80.65       112.27      
H           23.26652    81.95818    114.90443   
H           22.85       80.59       115.93      
H           23.91895    80.33033    114.54389   
C           17.85       80.42       112.6       
C           19.92       80.87       113.3       
C           18.77       81.42       112.82      
C           19.77       74.83       114.74      
C           18.88       74.78       113.77      
S           20.31       76.45       114.93      
H           17.99       76.09       112.29      
H           18.29       73.9        113.45      
C           18.65       76.01       113.16      
C           19.36       77.07       113.65      
C           19.12       70.52       116.91      
C           19.87       71.71       116.82      
N           18.27       70.51       115.79      
C           18.46       71.62       114.89      
C           20.97       72.48       117.43      
O           21.81       72.17       118.25      
O           17.81       71.72       113.87      
C           21.81       74.72       117.36      
C           16.92       70.06       115.78      
H           16.33755    70.85817    116.2402    
H           16.81       69.12       116.35      
H           16.51       69.84       114.83      
H           21.45       75.73       117.32      
H           22.81001    74.7711     116.92934   
H           21.92       74.44       118.41      
N           20.95       73.72       116.73      
C           19.42       72.46       115.67      
C           20.02       73.69       115.62      
C           18.65       67.98       119.99      
C           19.46       68.99       120.33      
S           18.14       68.21       118.34      
H           20.14       70.92       119.55      
H           19.92       68.94       121.27      
C           19.64       69.98       119.34      
C           19.04       69.69       118.09      
C           17.28       64.5        122.31      
C           17.99       65.56       122.92      
C           17.09       64.66       121.02      
N           19.09       67.49       122.95      
N           18.91       66.92       124.14      
N           18.3        65.73       124.16      
C           19.45       67.37       125.38      
H           16.6        63.89       120.42      
H           17.15       65.75       119.25      
H           20.0194     66.53725    125.79281   
H           18.57       67.7        126.04      
H           20.08278    68.23552    125.18362   
C           17.44       65.81       120.27      
C           18.46       66.65       122.17      
C           18.21       66.85       120.77      
H           35.09       40.62       40.65       
H           17.29       63.51       122.81      
