472

C           25.78       62.55       37.95       
C           26.73       62.01       37.18       
S           25.37       61.47       39.3        
H           27.96       60.17       37.19       
H           27.09       62.61       36.32       
C           27.19       60.75       37.67       
C           26.49       60.26       38.76       
C           25.38       67.11       36.56       
C           24.88       66.05       37.29       
N           26.66       66.75       36.08       
C           26.94       65.38       36.5        
C           23.73       65.64       38.1        
O           22.63       66.19       38.38       
O           28.0        64.84       36.11       
C           23.06       63.48       39.13       
C           27.85       67.6        36.01       
H           28.44914    67.50728    36.91584    
H           27.63       68.63       35.93       
H           28.41       67.35       35.18       
H           23.51       62.9        39.92       
H           22.45791    62.8634     38.46262    
H           22.33       64.25       39.43       
N           24.08       64.28       38.51       
C           25.8        64.93       37.3        
C           25.27       63.86       37.96       
C           24.04       70.8        35.91       
C           23.44       70.23       36.98       
S           25.12       69.65       35.15       
H           23.57       68.27       38.0        
H           22.65       70.73       37.59       
C           23.89       68.89       37.2        
C           24.87       68.42       36.4        
C           22.62       74.44       33.93       
C           23.8        73.8        33.46       
C           22.05       73.84       34.95       
N           25.38       72.27       33.35       
N           25.36       73.08       32.31       
N           24.54       74.09       32.33       
C           26.3        73.16       31.18       
H           21.13       74.34       35.33       
H           21.89       72.24       36.42       
H           27.23856    72.66872    31.43664    
H           25.76       72.75       30.33       
H           26.481      74.1903     30.87369    
C           22.52       72.72       35.64       
C           24.31       72.58       34.1        
C           23.68       71.97       35.22       
C           21.35       78.1        33.41       
C           22.0        77.73       32.25       
S           21.32       76.75       34.48       
H           22.99       75.98       31.39       
H           22.29       78.43       31.47       
C           22.35       76.37       32.21       
C           22.04       75.65       33.37       
C           19.26       81.23       36.22       
C           19.4        80.79       34.94       
N           20.14       80.52       37.06       
C           20.95       79.59       36.28       
C           18.91       80.9        33.58       
O           18.18       81.64       32.97       
O           21.98       79.08       36.67       
C           19.34       79.53       31.56       
C           19.83       80.06       38.38       
H           18.99637    79.3641     38.28576    
H           19.58       80.93       39.14       
H           20.69       79.56       38.88       
H           19.28       78.46       31.39       
H           19.93033    80.02194    30.78695    
H           18.29       79.81       31.44       
N           19.78       79.99       32.87       
C           20.5        79.84       34.94       
C           20.69       79.35       33.66       
C           16.32       83.29       37.94       
C           16.23       83.29       36.58       
S           17.82       82.54       38.25       
H           17.29       82.56       34.8        
H           15.45       83.85       36.12       
C           17.26       82.66       35.86       
C           18.21       82.12       36.62       
C           13.13       84.29       40.84       
C           14.44       83.79       41.22       
C           12.95       84.41       39.53       
N           16.59       83.2        41.03       
N           16.13       82.97       42.2        
N           14.85       83.3        42.4        
C           17.06       82.93       43.28       
H           12.04       84.8        39.16       
H           13.72       84.14       37.53       
H           18.04685    82.58212    42.97471    
H           17.06       83.92       43.58       
H           16.62086    82.38631    44.11645    
C           13.96       84.09       38.59       
C           15.51       83.57       40.31       
C           15.28       83.7        38.9        
C           9.64        84.56       42.85       
C           10.65       84.29       43.71       
S           10.32       84.91       41.26       
H           12.83       84.07       43.68       
H           10.59       84.16       44.74       
C           11.97       84.31       43.1        
C           12.03       84.45       41.81       
C           5.59        84.2        45.41       
C           6.19        84.4        44.22       
N           6.55        83.84       46.29       
C           7.88        84.01       45.75       
C           5.95        84.77       42.85       
O           4.89        85.03       42.29       
O           8.87        83.8        46.39       
C           7.14        84.8        40.79       
C           6.38        83.29       47.7        
H           6.20787     84.08609    48.42437    
H           5.65        82.54       47.7        
H           7.36        82.92       47.94       
H           7.94        84.27       40.31       
H           7.05641     85.81702    40.40688    
H           6.29        84.15       40.65       
N           7.21        84.82       42.19       
C           7.64        84.31       44.32       
C           8.21        84.55       43.09       
C           1.71        85.38       45.6        
C           1.97        84.33       46.49       
S           3.2         85.67       44.78       
H           3.61        82.92       47.09       
H           1.27        83.96       47.22       
C           3.34        83.83       46.51       
C           4.17        84.49       45.57       
C           -1.81       87.93       45.33       
C           -0.73       88.08       44.43       
C           -1.67       86.92       46.27       
N           1.14        87.48       43.44       
N           0.56        88.44       42.76       
N           -0.61       88.84       43.29       
C           1.01        88.87       41.47       
H           -2.52       86.72       46.95       
H           -0.57       85.16       47.0        
H           1.89687     88.27637    41.24828    
H           0.27        88.63       40.69       
H           1.19986     89.93881    41.37156    
C           -0.5        86.09       46.34       
C           0.43        87.26       44.53       
C           0.49        86.18       45.48       
C           -5.33       89.68       45.61       
C           -4.96       89.65       44.33       
S           -4.04       88.91       46.51       
H           -3.22       89.02       43.12       
H           -5.55       90.05       43.53       
C           -3.67       89.09       44.08       
C           -3.08       88.56       45.18       
C           -9.79       91.57       45.31       
C           -8.68       91.25       46.08       
N           -9.52       91.07       44.04       
C           -8.27       90.38       44.01       
C           -8.03       91.48       47.36       
O           -8.38       92.02       48.47       
O           -7.79       89.94       42.98       
C           -5.71       91.32       48.21       
C           -10.48      90.75       42.98       
H           -10.87229   89.75144    43.17258    
H           -10.04      90.9        42.01       
H           -11.28      91.5        43.0        
H           -4.71       91.28       47.64       
H           -5.59363    90.82713    49.17521    
H           -5.85       92.4        48.31       
N           -6.75       90.81       47.32       
C           -7.71       90.5        45.35       
C           -6.59       90.24       46.1        
C           -12.02      94.71       46.47       
C           -12.75      93.84       45.67       
S           -10.45      93.93       46.72       
H           -12.54      91.86       44.73       
H           -13.77      93.98       45.35       
C           -12.11      92.6        45.34       
C           -10.79      92.49       45.72       
C           -13.01      98.7        47.69       
C           -11.9       98.11       48.28       
C           -13.87      97.87       47.0        
N           -10.43      96.46       48.64       
N           -10.19      97.51       49.34       
N           -10.99      98.55       49.22       
C           -8.93       97.68       50.1        
H           -14.69      98.28       46.58       
H           -14.2       96.12       45.88       
H           -8.53121    96.66826    50.17385    
H           -8.23       98.4        49.63       
H           -9.14535    98.00674    51.11733    
C           -13.52      96.61       46.61       
C           -11.61      96.75       47.96       
C           -12.39      95.97       47.01       
C           -13.6       102.48      48.78       
C           -14.16      102.3       47.6        
S           -12.72      101.01      49.28       
H           -14.47      100.55      46.11       
H           -14.6       103.1       47.08       
C           -14.07      100.9       47.06       
C           -13.34      100.13      47.92       
C           -12.8       107.18      49.33       
C           -12.73      105.93      49.9        
N           -12.82      107.09      47.92       
C           -13.1       105.63      47.63       
C           -12.64      105.27      51.22       
O           -12.25      105.73      52.31       
O           -13.18      105.15      46.47       
C           -12.79      102.94      51.94       
C           -12.24      107.85      46.79       
H           -13.03876   108.13275   46.10434    
H           -11.51      107.25      46.24       
H           -11.67      108.68      47.18       
H           -11.95      102.33      51.8        
H           -13.67076   102.3027    52.01877    
H           -12.54      103.49      52.93       
N           -12.96      103.87      50.86       
C           -13.16      104.93      48.93       
C           -13.28      103.69      49.53       
C           -13.53      110.77      50.87       
C           -13.66      109.81      51.82       
S           -12.93      110.06      49.4        
H           -13.61      107.65      51.85       
H           -14.12      109.96      52.81       
C           -13.45      108.51      51.25       
C           -13.04      108.43      50.0        
C           -14.92      114.84      51.2        
C           -14.12      114.43      50.06       
C           -15.2       113.78      52.08       
N           -12.94      112.97      48.86       
N           -13.01      114.2       48.33       
N           -13.67      115.1       49.03       
C           -12.24      114.56      47.16       
H           -15.83      113.91      52.94       
H           -15.12      111.77      52.57       
H           -11.64331   113.70863   46.83255    
H           -12.94      114.87      46.4        
H           -11.64659   115.4394    47.41024    
C           -14.76      112.48      51.87       
C           -13.75      113.06      49.88       
C           -13.94      112.11      50.86       
C           -15.72      118.46      52.76       
C           -14.85      118.58      51.75       
S           -16.05      116.74      52.89       
H           -14.08      117.46      50.05       
H           -14.38      119.54      51.59       
C           -14.75      117.39      50.92       
C           -15.2       116.24      51.44       
C           -16.0       122.71      55.0        
C           -16.4       121.37      54.94       
N           -15.1       122.91      53.97       
C           -14.87      121.67      53.2        
C           -17.23      120.37      55.53       
O           -18.05      120.44      56.43       
O           -14.05      121.6       52.26       
C           -17.61      117.96      55.36       
C           -14.8       124.11      53.26       
H           -15.57411   124.25779   52.507      
H           -13.82      124.1       52.87       
H           -14.74      125.01      53.89       
H           -17.0       117.11      55.26       
H           -18.58182   117.74481   54.91574    
H           -17.8       118.03      56.39       
N           -16.99      119.17      54.86       
C           -15.7       120.69      53.85       
C           -16.1       119.4       53.78       
C           -16.57      125.6       57.82       
C           -16.98      124.35      58.22       
S           -15.98      125.43      56.15       
H           -17.2       122.35      57.39       
H           -17.29      124.2       59.25       
C           -16.83      123.31      57.26       
C           -16.27      123.69      56.1        
C           -16.8       129.22      60.24       
C           -16.59      129.33      58.83       
C           -16.74      127.95      60.74       
N           -16.35      128.55      56.7        
N           -16.38      129.84      56.79       
N           -16.5       130.37      57.98       
C           -16.78      130.71      55.63       
H           -16.77      127.81      61.82       
H           -16.58      125.79      60.43       
H           -16.06999   130.54505   54.81958    
H           -17.83      130.52      55.4        
H           -16.83552   131.7441    55.97007    
C           -16.63      126.8       59.94       
C           -16.49      128.17      57.99       
C           -16.54      126.84      58.57       
C           -17.87      132.06      62.53       
C           -16.84      131.48      63.17       
S           -18.18      131.39      60.98       
H           -15.44      129.82      62.8        
H           -16.38      131.79      64.15       
C           -16.32      130.41      62.41       
C           -16.83      130.35      61.18       
C           -20.46      134.02      66.07       
C           -20.15      134.07      64.73       
N           -19.59      133.1       66.66       
C           -18.64      132.67      65.76       
C           -20.54      134.53      63.43       
O           -21.44      135.3       63.08       
O           -17.7       131.93      65.98       
C           -19.63      134.28      61.12       
C           -19.6       132.27      67.82       
H           -20.33134   131.47537   67.67233    
H           -18.71      131.83      68.11       
H           -19.75      132.88      68.74       
H           -19.73      133.5       60.39       
H           -18.76609   134.92439   60.95713    
H           -20.37      135.07      61.05       
N           -19.69      133.78      62.47       
C           -19.05      133.2       64.48       
C           -18.81      132.97      63.15       
C           -24.04      134.99      67.42       
C           -23.06      135.27      68.33       
S           -23.17      134.47      65.96       
H           -20.82      135.08      68.56       
H           -23.34      135.68      69.33       
C           -21.71      134.96      67.93       
C           -21.61      134.55      66.67       
C           -28.53      134.78      68.1        
C           -27.9       134.35      66.91       
C           -27.57      135.22      69.05       
N           -26.18      133.99      65.49       
N           -27.35      133.62      64.97       
N           -28.41      133.68      65.83       
C           -27.43      132.9       63.71       
H           -27.88      135.44      70.04       
H           -25.52      135.63      69.64       
H           -26.46491   132.95041   63.20585    
H           -27.64      131.86      63.96       
H           -28.2518    133.22589   63.0724     
C           -26.13      135.31      68.84       
C           -26.47      134.48      66.68       
C           -25.49      134.96      67.63       
C           -32.24      134.2       69.59       
C           -32.33      134.24      68.2        
S           -30.6       134.47      69.99       
H           -30.92      134.53      66.49       
H           -33.34      134.09      67.67       
C           -31.09      134.43      67.54       
C           -30.0       134.72      68.4        
C           -35.99      131.18      70.62       
C           -35.08      132.17      70.95       
N           -35.92      131.14      69.18       
C           -34.93      132.04      68.66       
C           -34.57      132.85      72.14       
O           -35.15      133.0       73.22       
O           -34.66      132.11      67.49       
C           -32.67      134.51      72.68       
C           -36.9       130.67      68.2        
H           -37.46623   131.51935   67.81779    
H           -36.46      130.14      67.33       
H           -37.49      129.82      68.51       
H           -32.35      135.38      72.29       
H           -31.78957   133.96875   73.0264     
H           -33.46      134.7       73.41       
N           -33.5       133.78      71.69       
C           -34.29      132.7       69.83       
C           -33.29      133.51      70.32       
C           -37.69      128.42      72.82       
C           -37.53      129.55      73.57       
S           -37.22      128.68      71.16       
H           -36.9       131.6       73.22       
H           -37.5       129.57      74.67       
C           -37.04      130.63      72.8        
C           -36.82      130.34      71.51       
C           -38.45      124.46      74.72       
C           -38.13      124.56      73.39       
C           -38.77      125.7       75.21       
N           -37.86      125.59      71.39       
N           -37.83      124.3       71.32       
N           -38.22      123.6       72.44       
C           -37.09      123.71      70.22       
H           -39.2       125.78      76.19       
H           -38.68      127.86      75.15       
H           -37.13469   124.37295   69.35594    
H           -36.06      123.59      70.5        
H           -37.4553    122.70006   70.03377    
C           -38.46      126.93      74.59       
C           -37.97      125.83      72.65       
C           -38.08      127.1       73.31       
C           -39.39      121.39      76.95       
C           -40.14      121.25      75.81       
S           -38.42      122.82      76.9        
H           -40.28      122.34      73.83       
H           -40.78      120.4       75.57       
C           -39.86      122.31      74.87       
C           -39.01      123.26      75.31       
C           -41.17      117.72      79.58       
C           -40.22      118.77      79.41       
N           -42.2       118.06      78.65       
C           -41.82      119.14      77.77       
C           -38.92      119.24      79.94       
O           -38.1       118.83      80.83       
O           -42.53      119.61      76.9        
C           -37.18      120.94      79.22       
C           -43.64      117.63      78.5        
H           -44.32492   118.4148    78.82105    
H           -43.78      116.71      79.05       
H           -43.86      117.46      77.48       
H           -37.28      121.98      79.12       
H           -36.45571   120.56731   78.49571    
H           -36.91      120.77      80.25       
N           -38.52      120.35      79.03       
C           -40.53      119.59      78.27       
C           -39.53      120.53      78.09       
C           -41.27      115.21      82.67       
C           -42.03      114.73      81.62       
S           -40.49      116.71      82.14       
H           -42.54      115.42      79.56       
H           -42.58      113.8       81.77       
C           -42.02      115.59      80.48       
C           -41.32      116.73      80.62       
C           -40.7       113.78      86.8        
C           -41.8       113.3       86.01       
C           -39.88      114.66      86.17       
N           -43.06      113.03      84.21       
N           -43.54      112.39      85.23       
N           -42.8       112.48      86.33       
C           -45.0       112.12      85.27       
H           -38.95      115.12      86.67       
H           -39.41      115.84      84.52       
H           -45.38067   112.00721   84.25488    
H           -45.18      111.26      85.86       
H           -45.44375   112.97113   85.7865     
C           -40.14      115.15      84.87       
C           -42.02      113.75      84.68       
C           -41.21      114.74      84.05       
C           -40.12      112.01      90.29       
C           -39.8       113.3       90.45       
S           -40.55      111.71      88.63       
H           -39.77      115.11      89.22       
H           -39.53      113.69      91.46       
C           -39.96      114.05      89.27       
C           -40.43      113.32      88.19       
C           -40.28      107.69      92.3        
C           -39.73      108.95      92.25       
N           -41.19      107.6       91.23       
C           -41.29      108.88      90.56       
C           -38.67      109.74      92.85       
O           -37.76      109.59      93.62       
O           -42.18      109.09      89.75       
C           -37.62      111.82      92.18       
C           -41.55      106.41      90.48       
H           -40.66821   106.09061   89.92454    
H           -42.46      106.62      89.89       
H           -41.86      105.75      91.32       
H           -37.72      112.87      92.43       
H           -37.1059    111.82      91.21885    
H           -37.0       111.5       92.94       
N           -38.86      111.04      92.22       
C           -40.27      109.7       91.21       
C           -39.85      110.96      91.27       
C           -40.15      104.82      95.11       
C           -39.11      105.71      95.29       
S           -41.02      105.28      93.61       
H           -38.19      107.4       94.19       
H           -38.4       105.73      96.13       
C           -38.93      106.63      94.21       
C           -39.98      106.64      93.25       
C           -42.0       101.59      97.62       
C           -41.1       102.45      98.1        
C           -42.49      101.89      96.36       
N           -39.79      104.23      98.17       
N           -39.87      103.54      99.33       
N           -40.71      102.52      99.37       
C           -38.88      103.94      100.38      
H           -43.31      101.35      95.99       
H           -42.29      102.94      94.5        
H           -38.06164   103.22127   100.4227    
H           -39.36      104.09      101.3       
H           -38.53341   104.92319   100.0617    
C           -41.93      102.94      95.55       
C           -40.6       103.56      97.31       
C           -40.83      103.75      95.96       
H           26.32       59.23       38.95       
H           -41.67      100.56      97.84       
