472

C           46.11       30.73       52.46       
C           47.0        30.51       53.39       
S           46.85       30.3        50.95       
H           49.0        29.69       53.64       
H           46.65       30.55       54.42       
C           48.2        29.93       52.98       
C           48.37       29.84       51.62       
C           42.5        32.71       54.92       
C           42.85       32.09       53.74       
N           43.63       33.04       55.69       
C           44.84       32.54       54.99       
C           42.49       31.51       52.48       
O           41.37       31.29       52.03       
O           45.98       32.53       55.4        
C           43.48       30.29       50.69       
C           43.83       33.73       56.99       
H           44.33995    33.16338    57.7691     
H           42.85       33.93       57.4        
H           44.33       34.65       56.77       
H           44.08       29.34       50.64       
H           43.86637    30.87307    49.85403    
H           42.45       29.96       50.59       
N           43.63       30.95       51.98       
C           44.32       31.9        53.84       
C           44.76       31.25       52.69       
C           38.74       33.69       55.89       
C           38.92       33.73       54.56       
S           40.29       33.27       56.61       
H           40.45       33.13       53.15       
H           38.04       33.82       53.87       
C           40.21       33.27       54.17       
C           41.11       33.15       55.15       
C           35.33       34.55       58.64       
C           35.44       35.16       57.34       
C           36.37       33.64       58.87       
N           36.32       35.7        55.37       
N           35.22       36.38       55.57       
N           34.65       36.03       56.72       
C           34.39       36.71       54.42       
H           36.34       33.05       59.82       
H           38.11       32.54       58.29       
H           34.9741     36.46369    53.53329    
H           33.5        36.14       54.36       
H           34.14193    37.77119    54.44067    
C           37.47       33.39       57.98       
C           36.53       34.98       56.46       
C           37.62       34.09       56.78       
C           33.04       34.55       61.84       
C           32.33       35.2        60.82       
S           34.32       33.73       61.13       
H           32.76       35.94       58.77       
H           31.34       35.65       61.02       
C           33.12       35.38       59.64       
C           34.32       34.72       59.69       
C           33.84       33.28       66.35       
C           32.89       33.65       65.43       
N           35.15       33.47       65.87       
C           34.97       33.78       64.46       
C           31.46       33.8        65.18       
O           30.4        33.67       65.8        
O           35.92       34.22       63.83       
C           30.07       34.52       63.17       
C           36.32       33.89       66.57       
H           37.2121     33.33879    66.27263    
H           36.05       33.92       67.62       
H           36.49       34.96       66.29       
H           29.89       34.04       62.16       
H           29.84836    35.58529    63.10565    
H           29.36       34.14       63.91       
N           31.41       34.19       63.77       
C           33.56       33.93       64.2        
C           32.66       34.25       63.23       
C           33.56       31.64       69.91       
C           32.35       32.09       69.56       
S           34.71       31.94       68.67       
H           31.37       33.11       67.93       
H           31.48       31.96       70.19       
C           32.3        32.79       68.35       
C           33.53       32.79       67.71       
C           34.81       28.75       72.96       
C           33.49       29.29       72.96       
C           35.65       29.32       72.05       
N           31.79       30.63       72.26       
N           31.53       29.9        73.29       
N           32.39       29.02       73.72       
C           30.16       29.94       73.77       
H           36.66       29.05       72.04       
H           35.98       30.64       70.48       
H           29.58794    30.69126    73.22551    
H           29.72       28.87       73.61       
H           30.18099    30.23384    74.81944    
C           35.23       30.33       71.14       
C           33.02       30.29       72.03       
C           33.96       30.78       71.07       
C           36.32       25.58       74.51       
C           35.12       25.81       75.09       
S           36.72       26.84       73.47       
H           33.5        27.38       75.03       
H           34.75       25.25       75.97       
C           34.48       27.01       74.71       
C           35.19       27.65       73.77       
C           38.26       21.96       77.04       
C           38.22       22.76       75.87       
N           37.29       22.47       77.85       
C           36.64       23.67       77.29       
C           38.75       22.82       74.58       
O           39.48       22.13       73.89       
O           35.72       24.25       77.92       
C           37.72       23.85       72.58       
C           36.95       22.09       79.24       
H           37.65771    22.54349    79.93397    
H           36.01       22.49       79.58       
H           36.76       21.09       79.49       
H           37.45       24.76       72.22       
H           36.94306    23.11544    72.36811    
H           38.68       23.5        72.14       
N           37.99       23.88       73.99       
C           37.28       23.8        75.99       
C           37.24       24.61       74.9        
C           41.2        19.27       77.32       
C           40.24       19.04       78.25       
S           40.68       20.63       76.37       
H           38.41       19.95       79.03       
H           40.35       18.38       79.13       
C           39.15       19.94       78.23       
C           39.11       20.77       77.11       
C           45.49       18.04       77.19       
C           44.59       17.62       78.21       
C           44.8        18.84       76.25       
N           42.66       17.36       79.39       
N           43.76       16.87       80.0        
N           44.93       16.98       79.38       
C           43.64       16.09       81.22       
H           45.4        19.08       75.45       
H           43.16       19.96       75.56       
H           42.81275    15.38193    81.17093    
H           44.64       15.54       81.43       
H           43.48062    16.7414     82.07929    
C           43.49       19.25       76.38       
C           43.2        17.96       78.25       
C           42.56       18.78       77.27       
C           49.3        17.21       76.45       
C           48.64       16.1        77.04       
S           48.16       18.54       76.54       
H           46.58       15.53       77.66       
H           49.03       15.16       77.4        
C           47.26       16.3        77.3        
C           46.83       17.54       77.04       
C           53.76       15.64       75.68       
C           52.87       16.63       75.59       
N           53.13       14.57       76.36       
C           51.75       14.76       76.22       
C           52.67       17.98       75.11       
O           53.43       18.81       74.68       
O           50.97       13.87       76.44       
C           50.89       19.53       74.86       
C           53.69       13.65       77.45       
H           53.20024    13.77964    78.41511    
H           54.76       13.81       77.59       
H           53.7        12.61       77.11       
H           49.96       19.85       75.33       
H           50.76542    19.42008    73.78274    
H           51.59       20.26       75.13       
N           51.33       18.3        75.5        
C           51.58       16.19       76.06       
C           50.7        17.2        76.04       
C           57.57       16.54       75.78       
C           57.44       15.16       75.58       
S           55.98       17.18       76.07       
H           55.81       13.74       75.22       
H           58.3        14.41       75.48       
C           56.07       14.75       75.46       
C           55.17       15.77       75.56       
C           60.66       19.52       74.67       
C           60.91       18.12       74.57       
C           59.47       19.73       75.28       
N           60.46       15.92       74.59       
N           61.59       16.19       73.95       
N           61.93       17.44       73.93       
C           62.23       15.26       73.07       
H           59.1        20.72       75.29       
H           57.54       19.15       76.07       
H           62.05305    14.22781    73.37228    
H           61.83       15.37       72.08       
H           63.27261    15.50824    72.87141    
C           58.51       18.77       75.69       
C           59.91       17.11       74.93       
C           58.65       17.45       75.51       
C           63.51       22.01       73.47       
C           62.5        22.8        73.93       
S           63.07       20.34       73.63       
H           60.39       22.45       74.65       
H           62.36       23.9        73.94       
C           61.34       22.04       74.31       
C           61.51       20.65       74.31       
C           66.3        25.37       71.32       
C           66.07       24.04       71.56       
N           65.33       26.07       71.94       
C           64.24       25.16       72.17       
C           66.6        22.72       71.34       
O           67.59       22.32       70.74       
O           63.22       25.7        72.63       
C           66.02       20.4        72.09       
C           65.62       27.21       72.78       
H           65.76601    26.90408    73.81595    
H           64.9        28.04       72.76       
H           66.53       27.67       72.5        
H           65.11       19.85       72.04       
H           66.7209     20.06357    72.85398    
H           66.42       20.15       71.12       
N           65.74       21.81       72.11       
C           64.83       23.83       72.26       
C           64.68       22.56       72.71       
C           69.14       27.07       69.14       
C           69.63       25.97       69.76       
S           67.48       27.23       69.58       
H           68.9        24.35       70.96       
H           70.6        25.47       69.5        
C           68.73       25.3        70.57       
C           67.55       25.93       70.77       
C           70.39       29.03       65.37       
C           69.53       29.77       66.31       
C           70.64       27.68       65.72       
N           68.48       30.15       68.29       
N           68.65       31.22       67.54       
N           69.15       31.03       66.32       
C           67.96       32.42       67.86       
H           71.31       27.08       65.08       
H           70.62       26.07       67.12       
H           67.76294    32.49038    68.92973    
H           68.51       33.28       67.47       
H           67.03416    32.36346    67.28753    
C           70.29       27.13       66.99       
C           69.1        29.13       67.57       
C           69.54       27.83       67.94       
C           71.76       29.67       61.74       
C           70.95       30.73       62.08       
S           71.99       28.76       63.17       
H           69.64       31.4        63.73       
H           70.75       31.49       61.32       
C           70.41       30.68       63.36       
C           70.79       29.57       64.05       
C           73.17       30.72       57.39       
C           73.15       29.79       58.35       
N           72.62       31.91       57.84       
C           72.25       31.8        59.21       
C           73.39       28.43       58.69       
O           74.01       27.55       58.19       
O           71.86       32.75       59.81       
C           72.68       26.98       60.51       
C           72.81       33.28       57.42       
H           71.81071    33.69229    57.28024    
H           73.3        33.38       56.44       
H           73.34       33.78       58.16       
H           71.85       27.0        61.21       
H           73.53914    26.53207    61.00933    
H           72.33       26.26       59.69       
N           72.9        28.31       60.05       
C           72.52       30.4        59.51       
C           72.42       29.5        60.51       
C           73.98       30.2        53.56       
C           74.45       29.13       54.25       
S           73.3        31.38       54.62       
H           74.64       28.63       56.4        
H           74.83       28.24       53.73       
C           74.22       29.29       55.68       
C           73.68       30.51       56.08       
C           73.53       30.41       49.17       
C           73.56       29.17       49.84       
C           73.59       31.52       50.03       
N           73.78       27.71       51.55       
N           73.68       27.09       50.4        
N           73.52       27.89       49.35       
C           73.26       25.68       50.3        
H           73.63       32.52       49.63       
H           73.93       32.35       52.13       
H           73.63156    25.10513    51.14828    
H           72.14       25.71       50.13       
H           73.65404    25.2573     49.37579    
C           73.76       31.4        51.47       
C           73.71       29.08       51.27       
C           73.79       30.21       52.13       
C           73.11       31.56       45.39       
C           73.13       30.17       45.49       
S           73.21       32.18       47.0        
H           73.48       28.63       46.87       
H           73.03       29.55       44.63       
C           73.34       29.69       46.72       
C           73.43       30.61       47.74       
C           73.61       31.86       40.63       
C           73.3        32.5        41.77       
N           74.29       30.68       40.96       
C           74.29       30.44       42.4        
C           72.78       33.69       42.33       
O           72.41       34.72       41.87       
O           74.58       29.39       42.9        
C           71.64       34.07       44.57       
C           75.3        29.9        40.18       
H           76.21385    30.49257    40.13716    
H           75.61       29.02       40.73       
H           74.9        29.75       39.19       
H           72.05       34.43       45.54       
H           70.7464     33.45823    44.69373    
H           71.28       34.92       44.1        
N           72.63       33.41       43.78       
C           73.7        31.65       42.9        
C           73.3        32.26       44.11       
C           72.82       32.33       36.81       
C           72.44       33.48       37.42       
S           73.33       31.13       37.93       
H           72.45       34.27       39.37       
H           71.91       34.33       36.97       
C           72.78       33.44       38.76       
C           73.29       32.28       39.24       
C           72.24       31.43       32.58       
C           73.11       30.6        33.37       
C           71.48       32.4        33.27       
N           74.28       30.12       35.24       
N           74.66       29.42       34.17       
N           74.03       29.67       33.08       
C           75.52       28.22       34.39       
H           70.65       33.0        32.79       
H           71.1        33.46       35.08       
H           76.12851    28.28443    35.29203    
H           74.82       27.35       34.41       
H           76.18738    28.12899    33.53302    
C           71.64       32.62       34.66       
C           73.26       30.82       34.76       
C           72.61       31.96       35.41       
C           71.53       31.73       28.62       
C           72.87       31.36       28.8        
S           70.82       32.05       30.22       
H           74.1        30.63       30.49       
H           73.53       31.11       27.97       
C           73.16       31.06       30.17       
C           72.18       31.43       31.09       
C           71.47       32.87       23.91       
C           70.72       32.71       25.12       
N           72.83       32.74       24.31       
C           72.92       32.5        25.69       
C           69.38       32.62       25.67       
O           68.3        32.62       25.07       
O           73.99       32.49       26.25       
C           68.59       31.22       27.66       
C           74.0        32.51       23.48       
H           74.08529    31.46515    23.18147    
H           74.07       33.07       22.53       
H           74.9        32.73       24.05       
H           68.53       31.22       28.74       
H           68.54093    30.22467    27.21841    
H           67.65       31.74       27.45       
N           69.61       32.11       26.99       
C           71.61       32.37       26.19       
C           70.95       32.1        27.32       
C           70.47       33.46       20.09       
C           69.35       33.41       20.91       
S           71.85       33.23       21.09       
H           68.91       33.36       23.07       
H           68.35       33.46       20.59       
C           69.66       33.29       22.29       
C           70.94       33.13       22.56       
C           70.75       32.4        15.71       
C           69.6        32.17       16.55       
C           71.81       32.92       16.5        
N           68.17       32.28       18.27       
N           67.63       31.72       17.18       
N           68.44       31.58       16.22       
C           66.27       31.18       17.18       
H           72.81       33.11       16.15       
H           72.65       33.69       18.33       
H           65.87227    31.44515    18.15959    
H           65.73       31.56       16.37       
H           66.31251    30.09603    17.07373    
C           71.72       33.27       17.91       
C           69.5        32.58       17.88       
C           70.57       33.15       18.69       
C           71.85       31.57       12.19       
C           70.78       30.76       12.39       
S           72.5        32.25       13.63       
H           69.32       30.49       14.14       
H           70.22       30.33       11.56       
C           70.16       30.97       13.69       
C           70.95       31.85       14.37       
C           74.4        33.01       8.49        
C           73.78       31.95       9.06        
N           74.35       34.12       9.34        
C           73.53       33.85       10.44       
C           73.51       30.53       9.04        
O           73.76       29.63       8.24        
O           73.21       34.64       11.34       
C           72.28       28.9        10.4        
C           75.49       35.04       9.56        
H           76.01985    34.7009     10.45015    
H           75.14       36.03       9.87        
H           76.24       35.08       8.78        
H           71.31       28.76       10.73       
H           72.98742    28.46731    11.10742    
H           72.33       28.46       9.46        
N           72.65       30.31       10.13       
C           73.22       32.43       10.3        
C           72.54       31.44       10.9        
C           75.79       33.57       4.81        
C           75.89       32.24       5.14        
S           75.42       34.49       6.31        
H           75.11       30.96       6.77        
H           76.22       31.44       4.48        
C           75.43       31.95       6.48        
C           75.15       33.08       7.22        
C           76.45       35.76       1.0         
C           76.66       34.36       1.11        
C           76.1        36.33       2.18        
N           76.69       32.35       2.09        
N           76.9        32.32       0.73        
N           76.83       33.51       0.08        
C           77.6        31.3        0.03        
H           75.99       37.4        2.18        
H           75.86       36.24       4.24        
H           77.49062    30.38117    0.60609     
H           77.07       31.18       -0.93       
H           78.65472    31.52092    -0.13391    
C           75.99       35.64       3.41        
C           76.45       33.66       2.35        
C           76.07       34.28       3.56        
C           75.38       37.55       -2.39       
C           76.11       38.44       -1.69       
S           75.27       35.98       -1.51       
H           77.1        38.5        0.29        
H           76.22       39.47       -2.05       
C           76.61       37.88       -0.47       
C           76.32       36.53       -0.24       
C           72.31       40.34       -4.76       
C           73.0        39.11       -4.7        
N           72.79       41.1        -3.74       
C           73.57       40.4        -2.77       
C           73.29       37.84       -5.35       
O           72.88       37.39       -6.4        
O           74.18       40.83       -1.81       
C           74.83       35.91       -5.04       
C           72.95       42.52       -3.73       
H           72.35004    43.05568    -2.99434    
H           72.64       43.05       -4.66       
H           74.02       42.77       -3.64       
H           74.4        35.02       -4.52       
H           75.91789    35.88246    -4.97803    
H           74.61       35.76       -6.08       
N           74.21       37.17       -4.51       
C           73.77       39.09       -3.46       
C           74.41       37.91       -3.39       
C           69.46       41.78       -7.16       
C           70.01       40.68       -7.67       
S           70.36       42.17       -5.76       
H           71.52       39.18       -7.16       
H           69.72       40.29       -8.61       
C           71.03       40.11       -6.91       
C           71.41       40.8        -5.79       
C           65.98       44.28       -8.29       
C           66.67       43.43       -9.26       
C           66.68       44.45       -7.13       
N           67.93       41.61       -9.91       
N           66.99       41.96       -10.81      
N           66.27       43.02       -10.48      
C           66.59       41.12       -11.9       
H           66.2        45.08       -6.37       
H           68.25       43.69       -5.84       
H           67.45795    40.59503    -12.29897   
H           66.08       41.8        -12.64      
H           65.85927    40.36757    -11.60337   
C           67.84       43.64       -6.84       
C           67.81       42.56       -8.93       
C           68.44       42.71       -7.64       
H           49.36       29.81       51.18       
H           65.35       45.02       -8.74       
