472

C           50.8        83.48       3.42        
C           50.68       84.35       4.5         
S           51.2        84.45       2.01        
H           50.79       86.7        4.79        
H           50.47       84.06       5.57        
C           50.85       85.77       4.11        
C           51.28       85.97       2.83        
C           50.47       79.02       5.24        
C           50.52       79.84       4.13        
N           50.28       79.86       6.35        
C           50.25       81.26       5.94        
C           50.73       79.84       2.67        
O           50.82       78.85       1.83        
O           50.17       82.17       6.76        
C           50.33       81.51       0.82        
C           50.48       79.46       7.68        
H           51.47336    79.69085    8.06475     
H           50.32       78.38       7.88        
H           49.79       80.02       8.28        
H           50.98       82.24       0.5         
H           49.31789    81.80336    0.5413      
H           50.81       80.69       0.31        
N           50.53       81.22       2.28        
C           50.4        81.22       4.52        
C           50.52       82.09       3.38        
C           51.7        75.33       4.84        
C           50.6        75.37       5.69        
S           52.07       76.96       4.29        
H           49.23       76.92       6.38        
H           50.02       74.48       6.0         
C           50.07       76.69       5.83        
C           50.83       77.64       5.22        
C           53.91       71.9        2.87        
C           53.0        71.79       4.0         
C           54.12       73.23       2.53        
N           51.76       72.33       5.7         
N           51.99       71.01       5.64        
N           52.64       70.62       4.56        
C           51.25       69.99       6.47        
H           54.74       73.31       1.61        
H           53.62       75.19       2.71        
H           51.07691    70.40391    7.46339     
H           50.36       69.7        5.98        
H           51.84156    69.07449    6.47        
C           53.38       74.29       3.15        
C           52.35       72.85       4.63        
C           52.5        74.18       4.24        
C           55.86       69.46       0.57        
C           54.85       68.75       1.14        
S           55.72       71.18       0.93        
H           53.28       69.12       2.56        
H           54.74       67.74       0.98        
C           54.09       69.51       1.99        
C           54.44       70.85       2.04        
C           58.9        69.27       -3.11       
C           58.49       68.77       -1.92       
N           58.23       70.44       -3.22       
C           57.11       70.51       -2.26       
C           58.68       67.65       -1.05       
O           59.41       66.72       -1.09       
O           56.28       71.41       -2.38       
C           57.72       66.86       1.15        
C           58.56       71.62       -4.08       
H           58.6026     72.59276    -3.59007    
H           57.97       71.69       -5.01       
H           59.58       71.54       -4.5        
H           56.69       66.55       1.35        
H           58.11378    67.21233    2.10336     
H           58.27       65.98       0.78        
N           57.78       67.86       0.05        
C           57.39       69.48       -1.31       
C           56.94       68.92       -0.17       
C           61.78       68.32       -5.79       
C           62.02       67.77       -4.51       
S           60.25       69.17       -5.66       
H           61.06       67.67       -2.47       
H           62.96       67.31       -4.28       
C           60.96       68.05       -3.52       
C           60.02       68.91       -3.92       
C           64.17       67.54       -9.49       
C           62.92       68.27       -9.54       
C           64.67       67.42       -8.17       
N           61.03       69.19       -8.71       
N           61.06       69.23       -9.99       
N           62.21       68.72       -10.58      
C           59.94       69.82       -10.81      
H           65.69       67.12       -8.01       
H           64.18       67.24       -6.06       
H           58.99505    69.76       -10.27003   
H           60.14       70.85       -11.02      
H           59.82604    69.29295    -11.75727   
C           63.84       67.64       -7.03       
C           62.19       68.56       -8.31       
C           62.59       68.17       -7.0        
C           66.51       65.72       -12.03      
C           65.71       66.57       -12.77      
S           65.93       65.72       -10.36      
H           64.05       68.06       -12.4       
H           65.85       66.72       -13.85      
C           64.77       67.32       -11.97      
C           64.93       67.1        -10.57      
C           68.41       62.85       -15.32      
C           68.44       63.29       -14.05      
N           67.52       63.64       -15.94      
C           66.83       64.53       -15.08      
C           69.11       63.12       -12.78      
O           70.12       62.5        -12.46      
O           65.89       65.16       -15.53      
C           68.6        63.91       -10.48      
C           67.02       63.76       -17.27      
H           66.09684    63.22767    -17.49911   
H           66.99       64.81       -17.55      
H           67.81       63.42       -17.89      
H           67.64       63.88       -9.93       
H           69.25768    64.65346    -10.02963   
H           69.08       63.01       -10.39      
N           68.45       64.07       -11.92      
C           67.41       64.32       -13.82      
C           67.38       64.72       -12.53      
C           69.96       59.82       -17.32      
C           70.02       59.6        -15.97      
S           69.28       61.41       -17.56      
H           69.47       60.6        -14.09      
H           70.45       58.66       -15.53      
C           69.46       60.68       -15.16      
C           68.89       61.66       -15.88      
C           70.06       57.15       -20.84      
C           70.44       56.75       -19.54      
C           69.73       58.41       -20.83      
N           70.95       56.84       -17.4       
N           71.15       55.66       -17.88      
N           70.9        55.53       -19.14      
C           71.78       54.62       -17.08      
H           69.34       58.83       -21.74      
H           69.66       60.36       -20.01      
H           72.34846    55.13089    -16.30286   
H           70.97       54.02       -16.68      
H           72.52898    54.05648    -17.63639   
C           69.81       59.37       -19.77      
C           70.55       57.62       -18.43      
C           70.13       58.93       -18.46      
C           69.79       55.51       -24.37      
C           70.48       54.62       -23.55      
S           69.55       56.95       -23.44      
H           70.84       54.3        -21.44      
H           70.84       53.63       -23.91      
C           70.51       54.96       -22.18      
C           70.02       56.26       -21.97      
C           70.56       53.98       -28.79      
C           69.77       54.75       -28.0       
N           71.53       53.35       -27.98      
C           71.38       53.74       -26.64      
C           68.74       55.75       -27.94      
O           68.05       56.19       -28.82      
O           72.17       53.48       -25.75      
C           67.72       57.12       -26.19      
C           72.42       52.25       -28.34      
H           72.00995    51.3148     -27.95873   
H           73.41       52.23       -28.01      
H           72.45       52.1        -29.41      
H           68.28       57.91       -25.59      
H           66.90439    56.7122     -25.59286   
H           67.39       57.6        -27.03      
N           68.63       56.11       -26.54      
C           70.22       54.63       -26.64      
C           69.56       55.42       -25.74      
C           71.14       54.47       -32.68      
C           69.81       54.75       -32.4       
S           71.91       53.98       -31.2       
H           68.48       54.84       -30.64      
H           69.22       55.22       -33.11      
C           69.48       54.58       -31.02      
C           70.48       54.02       -30.26      
C           73.14       55.14       -36.6       
C           73.8        54.49       -35.52      
C           71.86       55.57       -36.25      
N           74.04       53.36       -33.55      
N           75.08       53.27       -34.42      
N           75.04       53.98       -35.52      
C           76.3        52.48       -34.08      
H           71.23       55.94       -37.05      
H           70.24       55.62       -34.91      
H           76.28596    52.19917    -33.02689   
H           76.35       51.53       -34.72      
H           77.17955    53.11523    -34.18471   
C           71.26       55.35       -34.95      
C           73.18       54.17       -34.29      
C           71.86       54.65       -33.91      
C           75.02       55.26       -40.1       
C           74.13       56.28       -40.05      
S           75.08       54.47       -38.57      
H           72.46       56.91       -38.64      
H           73.98       56.97       -40.85      
C           73.32       56.28       -38.85      
C           73.76       55.43       -37.88      
C           77.37       56.64       -44.06      
C           77.18       55.73       -43.07      
N           76.43       57.62       -43.91      
C           75.71       57.44       -42.72      
C           77.74       54.49       -42.59      
O           78.68       53.73       -42.95      
O           75.02       58.31       -42.25      
C           76.77       52.83       -41.02      
C           75.54       58.14       -44.95      
H           74.65729    57.50056    -44.94305   
H           76.08       58.08       -45.91      
H           75.26       59.21       -44.86      
H           75.71       52.66       -40.89      
H           77.39035    52.53392    -40.17407   
H           76.97       52.35       -42.02      
N           76.89       54.2        -41.43      
C           76.14       56.16       -42.19      
C           75.94       55.24       -41.22      
C           79.8        55.94       -47.2       
C           79.59       57.32       -47.0       
S           78.81       55.09       -45.99      
H           78.33       58.67       -45.91      
H           79.93       58.06       -47.71      
C           78.65       57.61       -45.98      
C           78.34       56.56       -45.16      
C           81.37       53.6        -50.64      
C           81.51       53.15       -49.35      
C           80.76       54.85       -50.71      
N           81.24       53.12       -47.15      
N           81.82       52.06       -47.54      
N           82.1        52.0        -48.88      
C           81.65       50.84       -46.75      
H           80.6        55.44       -51.56      
H           79.69       56.4        -49.77      
H           81.18122    51.02312    -45.78314   
H           80.96       50.21       -47.3       
H           82.63003    50.40764    -46.54823   
C           80.28       55.56       -49.56      
C           81.08       53.94       -48.19      
C           80.41       55.19       -48.27      
C           82.08       50.99       -53.6       
C           82.0        52.22       -54.11      
S           82.07       51.07       -51.9       
H           81.57       54.25       -53.36      
H           81.98       52.35       -55.17      
C           81.71       53.24       -53.11      
C           81.77       52.83       -51.81      
C           82.7        48.45       -57.71      
C           82.49       48.54       -56.4       
N           82.8        49.77       -58.11      
C           82.86       50.71       -56.98      
C           82.18       47.71       -55.29      
O           82.09       46.5        -55.18      
O           83.15       51.83       -57.03      
C           81.5        47.95       -52.96      
C           82.63       50.39       -59.41      
H           81.81065    51.10872    -59.42437   
H           82.35       49.73       -60.16      
H           83.47       51.02       -59.73      
H           80.73       48.58       -52.49      
H           82.28228    47.6681     -52.25525   
H           81.06       47.04       -53.33      
N           82.08       48.54       -54.15      
C           82.61       49.86       -55.85      
C           82.33       49.88       -54.47      
C           81.37       45.61       -60.01      
C           82.5        46.23       -60.57      
S           81.15       46.24       -58.39      
H           83.85       47.94       -60.18      
H           82.66       46.1        -61.61      
C           83.05       47.28       -59.79      
C           82.39       47.4        -58.61      
C           78.23       42.76       -61.35      
C           79.22       43.28       -62.22      
C           78.28       43.32       -60.05      
N           80.95       44.45       -62.84      
N           80.43       43.76       -63.83      
N           79.39       42.94       -63.52      
C           81.32       43.6        -65.03      
H           77.69       43.0        -59.15      
H           79.3        44.43       -58.51      
H           81.84057    44.53849    -65.22063   
H           82.06       42.82       -64.89      
H           80.59576    43.39409    -65.81815   
C           79.35       44.18       -59.62      
C           80.2        44.19       -61.8       
C           80.34       44.67       -60.44      
C           75.39       40.08       -61.79      
C           75.81       40.44       -62.99      
S           76.2        41.08       -60.6       
H           77.09       41.83       -63.98      
H           75.32       40.12       -63.93      
C           76.75       41.46       -63.05      
C           77.16       41.85       -61.81      
C           70.71       39.34       -62.2       
C           71.84       39.12       -61.45      
N           71.12       39.88       -63.39      
C           72.54       39.97       -63.51      
C           72.38       38.42       -60.25      
O           71.86       37.7        -59.41      
O           73.03       40.58       -64.44      
C           74.68       37.88       -59.48      
C           70.38       40.75       -64.29      
H           70.32227    40.22323    -65.24251   
H           69.42       41.12       -63.88      
H           70.95       41.62       -64.39      
H           75.55       38.5        -59.24      
H           75.05956    36.97596    -59.95617   
H           74.11       37.6        -58.63      
N           73.76       38.69       -60.35      
C           72.99       39.52       -62.23      
C           74.12       39.44       -61.44      
C           66.79       38.88       -61.27      
C           67.59       38.12       -60.49      
S           67.85       39.44       -62.52      
H           69.74       38.05       -59.99      
H           67.17       37.56       -59.66      
C           68.97       38.36       -60.66      
C           69.32       38.95       -61.78      
C           62.49       39.79       -60.51      
C           63.32       40.52       -61.4       
C           63.16       38.71       -59.96      
N           65.15       41.23       -62.46      
N           64.11       41.94       -62.8       
N           62.93       41.57       -62.19      
C           64.19       42.94       -63.9       
H           62.6        38.04       -59.34      
H           64.9        37.49       -59.72      
H           65.18231    42.89977    -64.34922   
H           63.4        42.71       -64.62      
H           63.87317    43.9265     -63.56157   
C           64.49       38.36       -60.25      
C           64.72       40.27       -61.6       
C           65.36       39.16       -61.03      
C           58.59       39.51       -60.41      
C           58.91       40.82       -60.69      
S           60.1        38.73       -59.99      
H           60.67       42.13       -60.94      
H           58.16       41.61       -60.84      
C           60.31       41.13       -60.73      
C           61.1        40.11       -60.34      
C           55.2        35.99       -60.75      
C           55.51       37.35       -60.81      
N           56.31       35.32       -60.25      
C           57.4        36.21       -60.07      
C           54.99       38.66       -61.13      
O           53.86       39.0        -61.42      
O           58.4        35.76       -59.63      
C           55.63       40.81       -60.47      
C           56.29       34.03       -59.51      
H           56.66584    33.21567    -60.12945   
H           56.9        34.02       -58.59      
H           55.35       33.7        -59.21      
H           56.17       41.54       -61.02      
H           55.88006    40.91419    -59.4142    
H           54.56       41.08       -60.6       
N           56.09       39.55       -60.92      
C           56.87       37.53       -60.47      
C           57.25       38.84       -60.59      
C           52.08       34.04       -62.16      
C           51.61       35.3        -61.82      
S           53.67       33.71       -61.47      
H           52.6        37.1        -61.05      
H           50.61       35.58       -62.22      
C           52.69       36.05       -61.2       
C           53.93       35.4        -61.02      
C           49.6        31.0        -64.09      
C           50.82       31.38       -64.59      
C           49.27       31.59       -62.9       
N           52.8        32.53       -64.69      
N           52.5        31.76       -65.7       
N           51.42       31.01       -65.69      
C           53.33       31.86       -66.86      
H           48.27       31.34       -62.53      
H           49.73       33.04       -61.34      
H           54.10882    32.60342    -66.69008   
H           53.76       30.9        -67.11      
H           52.76568    32.17929    -67.73618   
C           50.1        32.63       -62.3       
C           51.71       32.34       -63.89      
C           51.32       33.03       -62.72      
C           47.23       28.91       -66.53      
C           46.78       28.73       -65.23      
S           48.67       29.87       -66.44      
H           47.37       29.33       -63.17      
H           45.83       28.22       -65.04      
C           47.55       29.4        -64.23      
C           48.66       30.11       -64.78      
C           44.76       25.8        -69.25      
C           45.51       26.91       -69.19      
N           44.51       25.37       -67.92      
C           45.13       26.31       -66.94      
C           46.12       27.93       -69.97      
O           46.36       28.12       -71.14      
O           44.98       26.1        -65.74      
C           47.45       30.02       -69.53      
C           44.48       23.99       -67.49      
H           45.48342    23.56787    -67.54536   
H           43.87       23.35       -68.12      
H           44.13       23.95       -66.45      
H           48.26       30.24       -68.92      
H           46.75586    30.86027    -69.54461   
H           47.81       29.82       -70.54      
N           46.79       28.79       -69.04      
C           45.79       27.28       -67.81      
C           46.66       28.32       -67.74      
C           43.97       23.17       -72.18      
C           45.02       23.99       -72.57      
S           43.35       23.81       -70.62      
H           46.08       25.8        -71.75      
H           45.65       23.84       -73.51      
C           45.33       24.97       -71.56      
C           44.63       24.94       -70.36      
C           42.51       19.32       -73.94      
C           43.53       20.06       -74.57      
C           41.92       19.96       -72.86      
N           45.14       21.59       -74.69      
N           45.23       20.71       -75.64      
N           44.34       19.76       -75.63      
C           46.44       20.54       -76.4       
H           41.08       19.43       -72.39      
H           41.82       21.56       -71.5       
H           47.20506    21.27724    -76.15657   
H           46.8        19.55       -76.2       
H           46.15795    20.56752    -77.45252   
C           42.39       21.18       -72.32      
C           44.02       21.26       -74.01      
C           43.5        21.9        -72.79      
C           40.5        16.03       -74.9       
C           41.66       16.16       -75.61      
S           40.44       17.48       -73.9       
H           43.43       17.47       -75.91      
H           41.85       15.44       -76.35      
C           42.43       17.32       -75.4       
C           41.97       18.1        -74.42      
C           38.1        12.49       -77.08      
C           38.16       13.44       -76.15      
N           39.2        12.64       -77.88      
C           40.2        13.53       -77.32      
C           37.45       13.89       -74.96      
O           36.36       13.52       -74.43      
O           41.33       13.75       -77.73      
C           37.85       15.67       -73.27      
C           39.28       12.5        -79.37      
H           39.06781    13.45486    -79.85096   
H           38.51       11.76       -79.7       
H           40.2        12.03       -79.67      
H           38.01       16.72       -73.37      
H           38.15727    15.32615    -72.28235   
H           36.74       15.63       -73.34      
N           38.39       14.86       -74.41      
C           39.49       14.04       -76.14      
C           39.53       15.04       -75.15      
C           35.22       9.9         -78.01      
C           34.72       10.86       -77.26      
S           36.96       10.17       -78.21      
H           35.38       12.79       -76.43      
H           33.7        10.87       -76.95      
C           35.65       11.88       -76.98      
C           36.92       11.72       -77.44      
C           33.42       6.44        -80.13      
C           32.78       7.14        -79.08      
C           34.72       6.92        -80.31      
N           32.44       8.69        -77.49      
N           31.32       7.95        -77.82      
N           31.48       7.07        -78.77      
C           30.28       7.71        -76.89      
H           35.35       6.5         -81.05      
H           36.39       8.07        -79.58      
H           30.67176    8.08777     -75.94559   
H           29.99       6.66        -76.78      
H           29.37674    8.21335     -77.23476   
C           35.31       7.91        -79.43      
C           33.33       8.19        -78.3       
C           34.61       8.71        -78.59      
H           52.03       86.74       2.52        
H           33.24       5.41        -80.32      
