472

C           92.42       0.72        90.6        
C           91.48       1.52        91.18       
S           91.75       -0.02       89.18       
H           89.33       2.08        90.92       
H           91.72       2.17        92.01       
C           90.19       1.47        90.61       
C           90.2        0.77        89.4        
C           96.02       0.6         93.85       
C           95.57       0.3         92.58       
N           94.99       1.29        94.47       
C           93.81       1.38        93.63       
C           96.12       -0.27       91.33       
O           97.22       -0.73       90.92       
O           92.81       1.99        94.03       
C           95.13       -0.63       89.11       
C           94.89       2.21        95.56       
H           94.33988    1.73226     96.3707     
H           94.36       3.13        95.19       
H           95.88       2.46        95.95       
H           94.66       0.14        88.43       
H           94.71396    -1.60311    88.84909    
H           96.19       -0.82       88.94       
N           94.91       -0.24       90.52       
C           94.21       0.77        92.35       
C           93.79       0.46        91.11       
C           99.33       0.19        95.92       
C           99.65       0.19        94.56       
S           97.59       0.53        96.09       
H           98.51       0.38        92.59       
H           100.62      0.1         94.22       
C           98.49       0.27        93.7        
C           97.33       0.55        94.38       
C           102.23      0.23        99.2        
C           100.82      0.43        99.46       
C           102.56      -0.09       97.87       
N           98.64       0.44        99.0        
N           98.89       0.65        100.3       
N           100.16      0.61        100.62      
C           97.8        0.69        101.33      
H           103.63      -0.26       97.61       
H           102.05      -0.44       95.88       
H           96.82664    0.62831     100.84332   
H           97.97       -0.07       102.09      
H           97.96305    1.54231     101.98961   
C           101.59      -0.18       96.81       
C           99.91       0.31        98.44       
C           100.25      0.11        97.09       
C           105.47      0.33        101.46      
C           104.43      0.94        102.12      
S           104.91      -0.15       99.9        
H           102.3       1.31        101.9       
H           104.5       1.27        103.17      
C           103.22      0.92        101.41      
C           103.28      0.37        100.17      
C           108.45      -0.04       105.19      
C           108.22      -0.29       103.89      
N           107.66      1.06        105.54      
C           106.74      1.35        104.48      
C           108.68      -1.06       102.71      
O           109.75      -1.63       102.47      
O           105.92      2.27        104.46      
C           108.04      -1.12       100.3       
C           107.81      2.04        106.57      
H           106.90815   2.14182     107.17366   
H           108.18      2.98        106.11      
H           108.55      1.81        107.29      
H           107.62      -0.36       99.56       
H           107.71376   -2.14037    100.0987    
H           109.13      -1.09       100.24      
N           107.73      -0.74       101.68      
C           107.01      0.34        103.44      
C           106.7       0.0         102.14      
C           110.56      -2.0        107.87      
C           111.08      -2.16       106.6       
S           109.44      -0.77       107.77      
H           110.79      -1.34       104.57      
H           111.81      -2.89       106.43      
C           110.52      -1.33       105.61      
C           109.58      -0.52       106.08      
C           111.29      -4.33       111.62      
C           111.74      -4.73       110.32      
C           110.51      -3.22       111.53      
N           112.35      -4.57       108.11      
N           112.69      -5.71       108.74      
N           112.47      -5.82       110.04      
C           113.4       -6.74       108.02      
H           110.08      -2.88       112.45      
H           109.61      -1.7        110.36      
H           113.05982   -6.7886     106.98558   
H           114.49      -6.54       107.98      
H           113.24118   -7.66405    108.57588   
C           110.24      -2.57       110.31      
C           111.55      -3.99       109.08      
C           110.8       -2.82       109.05      
C           111.15      -6.21       115.18      
C           111.81      -7.0        114.25      
S           110.62      -4.73       114.35      
H           112.64      -6.81       112.16      
H           112.27      -7.96       114.54      
C           112.1       -6.34       112.99      
C           111.49      -5.07       112.85      
C           111.8       -8.42       119.41      
C           111.09      -7.56       118.65      
N           112.83      -8.87       118.63      
C           112.78      -8.3        117.3       
C           109.92      -6.69       118.62      
O           109.14      -6.32       119.55      
O           113.59      -8.6        116.44      
C           109.01      -5.0        117.11      
C           114.01      -9.67       118.97      
H           114.71117   -9.0205     119.49403   
H           113.68      -10.49      119.66      
H           114.46      -10.15      118.05      
H           108.57      -5.13       116.07      
H           109.36931   -4.00499    117.37257   
H           108.28      -5.27       117.82      
N           110.02      -6.0        117.4       
C           111.72      -7.36       117.39      
C           111.02      -6.44       116.59      
C           110.93      -10.28      122.73      
C           110.33      -9.04       122.78      
S           111.96      -10.5       121.4       
H           110.15      -7.34       121.31      
H           109.63      -8.7        123.52      
C           110.57      -8.28       121.54      
C           111.55      -8.89       120.75      
C           110.57      -13.17      126.03      
C           109.57      -12.2       125.74      
C           111.59      -13.21      125.14      
N           108.44      -10.58      124.57      
N           107.81      -10.98      125.62      
N           108.4       -11.94      126.41      
C           106.8       -10.03      126.14      
H           112.5       -13.81      125.36      
H           112.52      -12.47      123.26      
H           106.5576    -9.2751     125.39202   
H           105.91      -10.62      126.54      
H           107.23023   -9.54241    127.01479   
C           111.7       -12.34      123.99      
C           109.63      -11.3       124.63      
C           110.74      -11.35      123.74      
C           111.16      -15.76      128.96      
C           109.85      -15.65      128.78      
S           112.03      -14.91      127.69      
H           108.53      -14.43      127.44      
H           109.07      -16.12      129.44      
C           109.49      -14.76      127.76      
C           110.57      -14.21      127.1       
C           111.23      -17.97      133.26      
C           111.93      -17.51      132.19      
N           109.93      -17.56      133.14      
C           109.67      -17.04      131.89      
C           113.23      -17.41      131.58      
O           114.31      -17.66      131.99      
O           108.5       -16.86      131.5       
C           114.08      -16.8       129.49      
C           108.95      -17.44      134.24      
H           108.11781   -18.12534   134.07916   
H           108.54      -16.46      134.24      
H           109.32      -17.63      135.17      
H           114.06      -16.06      128.76      
H           114.02962   -17.7932    129.04378   
H           115.08      -16.68      130.0       
N           112.99      -16.66      130.42      
C           111.01      -16.91      131.29      
C           111.68      -16.34      130.2       
C           113.5       -18.69      136.34      
C           112.3       -19.34      136.5       
S           113.51      -17.91      134.82      
H           110.32      -19.5       135.47      
H           112.18      -19.97      137.3       
C           111.41      -19.17      135.47      
C           111.9       -18.4       134.45      
C           117.3       -18.58      138.63      
C           116.13      -19.19      139.14      
C           117.11      -17.95      137.44      
N           113.98      -19.91      139.06      
N           114.68      -20.37      140.14      
N           115.96      -20.0       140.26      
C           114.18      -21.42      140.99      
H           117.87      -17.34      137.02      
H           115.88      -17.46      135.82      
H           113.09057   -21.42694   140.9553    
H           114.6       -22.36      140.68      
H           114.54489   -21.27966   142.00748   
C           115.87      -17.95      136.74      
C           114.9       -19.14      138.38      
C           114.76      -18.61      137.12      
C           121.1       -18.3       139.79      
C           120.4       -18.78      140.84      
S           120.03      -18.32      138.45      
H           118.19      -18.84      141.43      
H           120.82      -19.13      141.8       
C           118.91      -18.77      140.64      
C           118.59      -18.56      139.32      
C           125.8       -18.89      140.85      
C           124.81      -18.47      140.05      
N           125.14      -19.4       142.0       
C           123.68      -19.31      141.86      
C           124.71      -17.95      138.68      
O           125.5       -17.67      137.84      
O           122.82      -19.64      142.74      
C           122.9       -17.3       137.18      
C           125.65      -20.36      142.92      
H           125.57915   -19.91365   143.91189   
H           126.63      -20.66      142.7       
H           125.01      -21.19      142.96      
H           122.1       -16.66      137.33      
H           122.58666   -18.05201   136.45584   
H           123.62      -16.67      136.73      
N           123.32      -17.81      138.49      
C           123.51      -18.65      140.58      
C           122.56      -18.14      139.67      
C           129.5       -19.0       139.67      
C           129.45      -18.65      141.0       
S           127.93      -19.17      139.06      
H           127.86      -18.25      142.57      
H           130.37      -18.49      141.52      
C           128.13      -18.58      141.54      
C           127.22      -18.79      140.59      
C           132.81      -19.38      136.97      
C           133.04      -19.48      138.36      
C           131.51      -19.14      136.6       
N           132.5       -19.55      140.54      
N           133.78      -19.45      140.3       
N           134.21      -19.52      139.06      
C           134.64      -18.95      141.35      
H           131.36      -18.83      135.59      
H           129.5       -18.99      137.02      
H           134.06036   -18.8355    142.26597   
H           135.57      -19.57      141.49      
H           135.00101   -17.96082   141.06841   
C           130.45      -19.17      137.47      
C           131.94      -19.39      139.27      
C           130.62      -19.28      138.83      
C           135.96      -19.84      134.61      
C           135.09      -18.91      134.07      
S           135.12      -20.59      135.95      
H           133.18      -17.93      134.46      
H           135.24      -18.42      133.09      
C           133.96      -18.63      134.86      
C           133.89      -19.37      136.01      
C           138.73      -20.49      130.75      
C           138.52      -20.66      132.12      
N           137.56      -19.88      130.29      
C           136.53      -19.8       131.27      
C           139.2       -21.16      133.34      
O           140.35      -21.39      133.62      
O           135.35      -19.6       130.94      
C           138.48      -21.56      135.66      
C           137.45      -18.98      129.13      
H           137.15885   -17.99738   129.50121   
H           136.7       -19.34      128.46      
H           138.47      -18.88      128.67      
H           137.58      -21.96      136.19      
H           139.06796   -20.92185   136.31967   
H           139.13      -22.41      135.42      
N           138.21      -20.91      134.35      
C           137.17      -20.21      132.49      
C           137.01      -20.42      133.87      
C           141.39      -21.44      128.02      
C           141.97      -21.68      129.26      
S           139.74      -20.95      128.21      
H           141.3       -21.42      131.4       
H           143.03      -21.98      129.4       
C           141.09      -21.35      130.34      
C           139.86      -20.87      129.94      
C           142.64      -22.65      123.95      
C           141.9       -21.49      124.25      
C           143.17      -23.24      125.1       
N           140.79      -19.9       125.42      
N           140.66      -19.79      124.07      
N           141.35      -20.71      123.37      
C           139.46      -19.28      123.39      
H           143.79      -24.11      124.99      
H           143.32      -23.37      127.23      
H           139.72481   -18.24937   123.15381   
H           139.36      -19.81      122.52      
H           138.64629   -19.32138   124.11406   
C           142.79      -22.9       126.43      
C           141.49      -21.12      125.6       
C           141.99      -21.82      126.78      
C           142.89      -23.6       120.04      
C           143.7       -24.46      120.77      
S           142.18      -22.51      121.1       
H           144.33      -24.77      122.85      
H           144.17      -25.3       120.22      
C           143.72      -24.11      122.18      
C           142.91      -23.08      122.59      
C           140.81      -22.0       116.08      
C           141.91      -22.51      116.71      
N           139.85      -22.02      117.04      
C           140.36      -22.51      118.32      
C           143.28      -22.85      116.46      
O           144.05      -22.68      115.5       
O           139.77      -22.45      119.31      
C           145.2       -23.68      117.87      
C           138.51      -21.41      117.03      
H           137.7895    -22.22707   117.06714   
H           138.29      -20.89      117.97      
H           138.35      -20.75      116.2       
H           145.28      -24.67      118.32      
H           145.86865   -22.9829    118.37504   
H           145.55      -23.78      116.91      
N           143.8       -23.32      117.77      
C           141.71      -22.84      118.06      
C           142.77      -23.42      118.66      
C           139.85      -20.75      112.52      
C           141.15      -20.59      112.66      
S           139.16      -21.44      113.96      
H           142.68      -21.15      114.15      
H           141.76      -20.25      111.8       
C           141.65      -21.08      113.85      
C           140.66      -21.41      114.77      
C           136.88      -20.1       109.25      
C           138.17      -19.51      109.28      
C           136.62      -20.88      110.4       
N           140.16      -19.02      110.07      
N           139.84      -18.39      108.93      
N           138.68      -18.62      108.34      
C           140.94      -17.62      108.38      
H           135.63      -21.32      110.63      
H           137.15      -21.61      112.3       
H           141.41438   -17.00695   109.14631   
H           141.68      -18.37      108.11      
H           140.57289   -17.06574   107.51621   
C           137.55      -21.05      111.47      
C           139.13      -19.75      110.31      
C           138.88      -20.53      111.47      
C           133.81      -20.72      106.75      
C           134.75      -19.98      105.99      
S           134.52      -21.21      108.27      
H           136.74      -19.02      106.41      
H           134.54      -19.66      104.97      
C           135.88      -19.58      106.78      
C           135.93      -20.15      108.08      
C           130.26      -21.45      103.55      
C           130.68      -21.62      104.85      
N           131.18      -20.54      102.94      
C           132.21      -20.16      103.8       
C           130.43      -22.3       106.11      
O           129.51      -22.98      106.5       
O           133.09      -19.38      103.48      
C           131.54      -22.25      108.38      
C           131.2       -20.04      101.58      
H           131.65247   -20.78234   100.9225    
H           130.17      -19.8       101.25      
H           131.86      -19.17      101.45      
H           132.07      -21.52      108.93      
H           131.87934   -23.24541   108.66656   
H           130.48      -22.12      108.63      
N           131.63      -22.0       106.91      
C           132.0       -20.94      105.03      
C           132.52      -21.22      106.21      
C           127.11      -22.82      101.41      
C           127.09      -23.23      102.74      
S           128.57      -21.95      101.3       
H           128.18      -23.04      104.65      
H           126.18      -23.65      103.13      
C           128.06      -22.72      103.61      
C           129.02      -21.97      102.97      
C           124.22      -23.13      98.13       
C           123.9       -23.45      99.45       
C           125.5       -22.63      98.01       
N           124.23      -23.81      101.66      
N           123.07      -24.24      101.22      
N           122.76      -23.9       99.97       
C           121.93      -24.56      102.08      
H           125.89      -22.42      97.02       
H           127.55      -22.3       98.84       
H           122.23127   -25.15554   102.94178   
H           121.46      -23.63      102.46      
H           121.13893   -25.06802   101.52843   
C           126.46      -22.5       99.06       
C           124.81      -23.31      100.53      
C           126.1       -22.76      100.37      
C           121.38      -23.3       95.39       
C           122.57      -23.3       94.72       
S           121.63      -23.3       97.11       
H           124.75      -23.09      95.31       
H           122.66      -23.23      93.61       
C           123.71      -23.17      95.61       
C           123.39      -23.25      96.96       
C           118.31      -22.91      91.83       
C           118.54      -23.19      93.16       
N           119.52      -22.67      91.25       
C           120.55      -22.52      92.25       
C           117.9       -23.78      94.34       
O           116.89      -24.4       94.43       
O           121.66      -22.06      92.09       
C           118.8       -24.79      96.38       
C           119.99      -22.98      89.94       
H           120.71306   -23.7916    89.85884    
H           120.46      -22.15      89.46       
H           119.22      -23.21      89.21       
H           119.27      -24.43      97.28       
H           119.23672   -25.76048   96.14431    
H           117.76      -24.82      96.7        
N           118.97      -23.89      95.27       
C           119.89      -22.98      93.47       
C           120.07      -23.22      94.79       
C           115.25      -23.24      89.32       
C           115.05      -24.08      90.47       
S           116.74      -22.37      89.54       
H           116.27      -24.8       92.26       
H           114.2       -24.76      90.57       
C           116.17      -24.12      91.37       
C           117.13      -23.22      91.0        
C           112.84      -22.71      85.64       
C           112.77      -23.9       86.53       
C           113.77      -21.8       86.11       
N           113.08      -25.16      88.34       
N           112.11      -25.6       87.57       
N           111.88      -24.89      86.43       
C           111.42      -26.93      87.8        
H           113.86      -20.89      85.58       
H           115.28      -21.23      87.5        
H           112.0878    -27.59062   88.35291    
H           110.51      -26.73      88.42       
H           111.09853   -27.40149   86.87131    
C           114.55      -22.0       87.3        
C           113.53      -24.04      87.71       
C           114.44      -23.11      88.12       
C           111.75      -21.86      81.98       
C           111.01      -22.97      82.43       
S           112.79      -21.3       83.25       
H           110.9       -24.19      84.21       
H           110.36      -23.54      81.8        
C           111.33      -23.34      83.76       
C           112.15      -22.49      84.36       
C           112.72      -18.44      78.88       
C           112.43      -19.77      79.08       
N           112.96      -17.95      80.08       
C           112.69      -18.83      81.19       
C           112.01      -21.03      78.4        
O           111.93      -21.34      77.25       
O           112.9       -18.48      82.32       
C           111.4       -23.34      79.13       
C           113.4       -16.66      80.42       
H           112.60197   -16.0686    80.86889    
H           113.85      -16.13      79.57       
H           114.19      -16.61      81.11       
H           110.41      -23.62      79.62       
H           112.1781    -24.06047   79.38216    
H           111.21      -23.29      78.08       
N           111.74      -21.95      79.49       
C           112.32      -20.03      80.49       
C           111.86      -21.31      80.67       
C           112.44      -17.11      75.05       
C           112.01      -16.16      75.92       
S           113.05      -18.44      75.98       
H           111.9       -15.85      78.13       
H           111.56      -15.29      75.5        
C           112.2       -16.5       77.32       
C           112.6       -17.82      77.56       
C           112.91      -17.49      70.62       
C           112.64      -16.24      71.26       
C           113.05      -18.55      71.5        
N           112.08      -14.79      72.88       
N           112.12      -14.28      71.64       
N           112.52      -15.09      70.63       
C           111.47      -12.99      71.48       
H           113.24      -19.58      71.1        
H           113.01      -19.22      73.6        
H           111.24747   -12.62144   72.48137    
H           110.5       -13.17      71.03       
H           112.00719   -12.26197   70.87213    
C           112.83      -18.42      72.95       
C           112.4       -16.13      72.66       
C           112.55      -17.2       73.63       
H           89.47       0.96        88.62       
H           113.46      -17.53      69.75       
