472

C           31.56       48.32       24.27       
C           31.57       47.11       24.85       
S           32.66       49.32       25.15       
H           32.21       46.14       26.71       
H           31.07       46.29       24.43       
C           32.15       47.07       26.16       
C           32.76       48.2        26.52       
C           29.6        46.96       20.04       
C           30.0        48.01       20.87       
N           30.07       45.78       20.55       
C           30.67       46.02       21.84       
C           30.11       49.45       21.06       
O           29.69       50.39       20.39       
O           31.19       45.11       22.5        
C           30.37       50.93       22.99       
C           30.44       44.64       19.72       
H           31.49767    44.40575    19.84067    
H           30.41       44.82       18.63       
H           29.77       43.75       19.81       
H           31.18       51.3        23.56       
H           29.45342    50.94421    23.57973    
H           30.45       51.64       22.14       
N           30.57       49.65       22.38       
C           30.63       47.48       22.02       
C           31.02       48.45       22.93       
C           28.14       48.32       16.49       
C           27.86       46.98       16.63       
S           29.04       48.88       17.86       
H           28.2        45.4        18.07       
H           27.14       46.46       16.0        
C           28.41       46.38       17.79       
C           29.03       47.26       18.65       
C           26.56       51.32       13.77       
C           25.9        50.12       13.95       
C           27.76       51.39       14.35       
N           25.43       48.16       14.99       
N           24.51       48.49       14.13       
N           24.78       49.65       13.41       
C           23.17       47.91       13.92       
H           28.43       52.17       14.03       
H           29.27       50.67       15.64       
H           22.97112    47.14877    14.67437    
H           22.4        48.74       13.96       
H           23.19175    47.40244    12.95563    
C           28.29       50.41       15.21       
C           26.35       49.15       14.89       
C           27.55       49.32       15.63       
C           25.63       54.63       11.84       
C           24.7        53.68       11.54       
S           26.85       53.96       12.85       
H           24.25       51.68       12.19       
H           23.82       53.86       11.06       
C           24.95       52.49       12.18       
C           26.08       52.42       12.9        
C           23.29       58.45       10.09       
C           24.43       57.93       10.64       
N           22.69       57.38       9.5         
C           23.3        56.15       9.93        
C           25.55       58.32       11.43       
O           26.02       59.37       11.86       
O           22.81       55.09       9.58        
C           27.23       57.15       12.71       
C           21.53       57.22       8.58        
H           20.60205    56.82632    8.99477     
H           21.72       56.73       7.64        
H           21.18       58.19       8.19        
H           27.9        56.31       12.56       
H           27.0094     57.50296    13.7174     
H           27.85       57.95       12.33       
N           26.1        57.11       11.92       
C           24.39       56.52       10.71       
C           25.42       56.02       11.44       
C           23.33       62.22       9.11        
C           22.05       61.78       9.17        
S           24.39       60.91       9.52        
H           20.99       59.95       9.66        
H           21.19       62.45       8.89        
C           21.93       60.47       9.62        
C           23.08       59.81       9.81        
C           24.47       66.11       7.78        
C           23.36       65.5        7.21        
C           25.09       65.51       8.83        
N           22.03       63.73       6.73        
N           21.57       64.86       6.19        
N           22.42       65.9        6.28        
C           20.16       65.03       5.9         
H           25.89       66.03       9.34        
H           25.23       63.75       10.13       
H           19.73277    64.04463    5.71395     
H           19.69       65.52       6.77        
H           20.04126    65.74941    5.08979     
C           24.69       64.21       9.28        
C           23.02       64.19       7.6         
C           23.79       63.46       8.58        
C           25.48       69.86       7.57        
C           24.83       69.55       6.4         
S           25.48       68.49       8.67        
H           24.04       67.74       5.48        
H           24.6        70.26       5.66        
C           24.57       68.17       6.29        
C           24.93       67.46       7.37        
C           26.61       74.52       6.83        
C           26.67       73.39       7.68        
N           26.16       74.18       5.57        
C           25.75       72.79       5.71        
C           27.14       72.99       9.02        
O           27.66       73.58       9.93        
O           25.19       72.21       4.78        
C           27.21       70.82       10.19       
C           25.78       75.12       4.53        
H           26.67831    75.31098    3.94292     
H           25.08       74.59       3.83        
H           25.25       76.0        4.89        
H           27.42       69.76       9.96        
H           26.47247    70.88262    10.99015    
H           28.12       71.19       10.54       
N           26.84       71.57       9.04        
C           26.11       72.25       7.02        
C           26.07       71.17       7.88        
C           27.67       77.97       8.12        
C           28.68       77.13       8.26        
S           26.4        77.27       7.14        
H           29.07       74.95       8.0         
H           29.51       77.33       8.84        
C           28.44       75.83       7.81        
C           27.25       75.76       7.17        
C           27.6        82.22       9.31        
C           26.39       81.58       8.86        
C           28.68       81.36       9.39        
N           25.12       79.8        8.1         
N           24.45       80.94       8.35        
N           25.07       82.03       8.83        
C           22.98       81.0        8.1         
H           29.56       81.81       9.82        
H           29.71       79.58       9.12        
H           22.67607    80.03294    7.69936     
H           22.5        81.3        9.05        
H           22.75246    81.74662    7.33916     
C           28.67       80.02       9.05        
C           26.41       80.15       8.46        
C           27.56       79.33       8.58        
C           28.26       85.68       11.05       
C           26.92       85.67       10.73       
S           29.11       84.26       10.47       
H           25.53       84.12       9.94        
H           26.17       86.46       10.91       
C           26.56       84.39       10.21       
C           27.58       83.55       9.94        
C           31.51       88.1        13.54       
C           30.55       88.1        12.55       
N           31.63       86.81       14.06       
C           30.52       86.0        13.49       
C           29.87       88.9        11.59       
O           30.05       90.14       11.41       
O           30.32       84.81       13.72       
C           28.23       88.54       9.77        
C           32.49       86.21       15.09       
H           31.84534    85.90139    15.91297    
H           33.25       86.92       15.34       
H           32.93       85.36       14.66       
H           27.24       88.16       9.75        
H           28.79375    88.33763    8.85932     
H           28.19       89.63       9.94        
N           28.87       88.09       10.97       
C           29.91       86.87       12.5        
C           28.88       86.86       11.58       
C           33.62       91.12       14.88       
C           33.2        91.41       13.64       
S           32.96       89.64       15.46       
H           32.1        90.25       12.06       
H           33.38       92.31       13.08       
C           32.54       90.29       13.02       
C           32.4        89.22       13.84       
C           35.93       94.05       17.17       
C           35.27       92.93       17.84       
C           35.74       94.05       15.75       
N           34.06       91.04       17.96       
N           34.37       91.54       19.16       
N           35.12       92.61       19.16       
C           33.71       91.15       20.4        
H           36.27       94.75       15.15       
H           35.13       93.06       14.03       
H           33.35036    90.12144    20.37123    
H           34.49       91.27       21.08       
H           32.88234    91.84551    20.5391     
C           35.01       93.06       15.07       
C           34.55       91.93       17.04       
C           34.36       92.06       15.64       
C           38.24       96.95       18.43       
C           37.79       96.28       19.56       
S           37.57       96.23       17.07       
H           36.41       94.6        19.97       
H           38.06       96.53       20.56       
C           36.89       95.26       19.27       
C           36.68       95.05       17.96       
C           42.11       99.55       20.12       
C           41.2        99.2        19.16       
N           41.43       99.05       21.29       
C           40.23       98.29       20.97       
C           41.03       99.42       17.72       
O           41.76       99.99       16.89       
O           39.68       97.54       21.76       
C           39.44       98.62       16.0        
C           41.81       99.34       22.68       
H           40.93226    99.65145    23.24628    
H           42.62       100.03      22.86       
H           42.14       98.36       23.01       
H           38.34       98.45       15.92       
H           39.85824    97.78352    15.4401     
H           39.75       99.52       15.57       
N           39.9        98.61       17.4        
C           40.1        98.42       19.56       
C           39.32       98.02       18.49       
C           45.75       100.94      20.47       
C           45.37       101.07      19.17       
S           44.51       100.13      21.41       
H           43.5        101.0       18.02       
H           45.96       101.76      18.48       
C           43.98       100.79      18.94       
C           43.42       100.18      20.06       
C           49.71       101.82      22.36       
C           48.58       101.57      23.12       
C           49.48       101.7       21.02       
N           46.41       101.18      23.64       
N           47.23       101.11      24.67       
N           48.48       101.44      24.49       
C           46.55       100.83      25.89       
H           50.37       101.59      20.38       
H           48.09       101.43      19.28       
H           45.50525    101.12751   25.80005    
H           46.67       99.83       26.02       
H           47.11476    101.36652   26.65242    
C           48.18       101.49      20.36       
C           47.25       101.27      22.58       
C           47.05       101.26      21.13       
C           53.52       102.24      23.33       
C           52.79       102.5       24.46       
S           52.4        101.87      22.07       
H           50.63       102.79      25.01       
H           53.29       102.8       25.4        
C           51.36       102.53      24.23       
C           51.02       102.15      23.01       
C           57.82       101.77      25.43       
C           57.07       101.93      24.29       
N           56.95       101.42      26.5        
C           55.62       101.56      26.02       
C           57.14       102.22      22.89       
O           58.13       102.44      22.21       
O           54.61       101.38      26.69       
C           55.66       102.84      20.94       
C           57.14       101.49      27.93       
H           56.90082    102.503     28.2536     
H           58.1        101.15      28.31       
H           56.48       100.73      28.41       
H           54.82       103.47      20.76       
H           55.66       102.09474   20.14458    
H           56.48       103.48      20.78       
N           55.85       102.3       22.3        
C           55.67       101.82      24.59       
C           54.94       101.99      23.35       
C           61.67       101.81      26.25       
C           61.47       101.43      24.97       
S           60.1        102.1       27.01       
H           59.83       101.26      23.54       
H           62.26       101.14      24.32       
C           60.1        101.45      24.59       
C           59.24       101.71      25.61       
C           65.35       101.74      28.59       
C           64.26       102.59      28.9        
C           65.19       101.06      27.4        
N           62.23       103.49      28.79       
N           62.93       104.02      29.81       
N           64.19       103.46      29.98       
C           62.46       105.24      30.41       
H           66.04       100.49      27.03       
H           64.08       100.6       25.71       
H           61.41195    105.38199   30.1463     
H           62.53       105.15      31.5        
H           63.032      106.0837    30.0239     
C           63.97       101.06      26.7        
C           63.03       102.63      28.15       
C           62.87       101.84      27.08       
C           68.63       100.74      30.53       
C           68.29       102.03      30.96       
S           67.51       100.22      29.31       
H           66.61       103.46      30.6        
H           68.97       102.6       31.6        
C           67.06       102.52      30.35       
C           66.6        101.71      29.38       
C           71.55       96.97       31.19       
C           71.36       98.34       31.32       
N           70.28       96.43       30.84       
C           69.26       97.42       30.68       
C           71.95       99.57       31.56       
O           73.08       99.83       31.79       
O           68.09       97.16       30.35       
C           71.56       101.88      30.88       
C           69.77       95.09       31.07       
H           69.7842     94.82733    32.12778    
H           68.81       94.9        30.74       
H           70.35       94.35       30.55       
H           70.9        102.71      31.19       
H           71.84879    101.97386   29.83315    
H           72.42       102.0       31.5        
N           70.99       100.57      31.2        
C           70.01       98.68       30.98       
C           69.76       100.02      30.97       
C           74.68       94.58       31.82       
C           74.89       95.79       32.32       
S           73.09       94.51       31.06       
H           73.81       97.71       32.4        
H           75.83       95.97       32.93       
C           73.85       96.71       32.01       
C           72.78       96.2        31.41       
C           77.35       91.01       31.76       
C           76.27       91.16       30.92       
C           77.51       92.06       32.58       
N           74.56       92.13       29.76       
N           74.95       90.92       29.29       
N           75.98       90.37       29.87       
C           74.1        90.26       28.26       
H           78.39       92.07       33.17       
H           76.72       93.84       33.45       
H           73.34657    90.98473    27.95145    
H           74.72       90.05       27.39       
H           73.6679     89.35031    28.67694    
C           76.58       93.1        32.69       
C           75.41       92.29       30.88       
C           75.59       93.37       31.76       
C           79.98       88.04       32.2        
C           78.82       87.48       31.76       
S           79.77       89.73       32.52       
H           76.82       88.32       31.0        
H           78.77       86.5        31.5        
C           77.83       88.47       31.43       
C           78.18       89.78       31.85       
C           84.67       87.53       33.05       
C           83.4        86.95       33.02       
N           84.52       88.9        32.82       
C           83.21       89.17       32.48       
C           82.67       85.75       33.16       
O           82.99       84.62       33.57       
O           82.82       90.26       32.11       
C           80.28       85.26       33.81       
C           85.46       90.02       32.82       
H           85.77127    90.27336    31.80658    
H           84.95       90.89       33.26       
H           86.28       89.83       33.51       
H           79.55       84.76       33.14       
H           79.78031    85.88637    34.54897    
H           80.87       84.51       34.33       
N           81.24       86.05       33.02       
C           82.46       87.91       32.66       
C           81.19       87.35       32.51       
C           87.8        85.42       34.22       
C           88.24       86.45       33.34       
S           86.06       85.29       34.15       
H           87.11       88.19       32.31       
H           89.27       86.68       33.2        
C           87.11       87.26       32.88       
C           85.9        86.77       33.2        
C           90.14       82.21       36.23       
C           90.75       83.31       35.58       
C           88.77       82.23       36.17       
N           91.0        85.17       34.36       
N           92.12       84.64       34.74       
N           92.07       83.59       35.49       
C           93.4        85.12       34.22       
H           88.21       81.39       36.6        
H           86.9        83.25       35.77       
H           93.16057    86.09885    33.80452    
H           94.12       85.17       34.99       
H           93.77534    84.44013    33.45515    
C           87.95       83.35       35.65       
C           90.01       84.35       34.96       
C           88.61       84.4        34.96       
C           91.8        79.86       38.87       
C           92.62       79.99       37.78       
S           90.27       80.47       38.39       
H           92.81       81.16       35.95       
H           93.62       79.55       37.75       
C           92.19       80.78       36.74       
C           90.91       81.2        36.93       
C           91.55       79.08       43.52       
C           92.1        78.68       42.34       
N           90.75       80.15       43.33       
C           90.57       80.36       41.92       
C           93.06       77.76       41.77       
O           93.66       76.76       42.21       
O           90.02       81.4        41.54       
C           93.97       77.5        39.51       
C           89.9        80.83       44.29       
H           88.86308    80.56901    44.07838    
H           90.03       81.88       44.28       
H           90.13       80.52       45.3        
H           94.55       78.08       38.84       
H           93.46412    76.72673    38.93186    
H           94.73       77.0        40.16       
N           93.07       78.21       40.39       
C           91.55       79.44       41.29       
C           92.13       79.16       40.06       
C           93.03       78.38       46.93       
C           91.79       77.8        46.97       
S           93.48       79.04       45.41       
H           90.16       77.78       45.31       
H           91.27       77.36       47.73       
C           91.16       78.03       45.67       
C           91.98       78.65       44.79       
C           96.45       78.46       49.81       
C           95.14       78.19       50.22       
C           96.46       78.86       48.5        
N           92.88       77.7        49.91       
N           93.31       77.6        51.19       
N           94.57       77.77       51.4        
C           92.52       76.79       52.13       
H           97.32       79.28       48.1        
H           95.59       79.15       46.59       
H           91.51806    76.66476    51.71948    
H           92.99       75.81       52.39       
H           92.38207    77.29089    53.08822    
C           95.35       78.88       47.6        
C           93.98       78.17       49.35       
C           94.07       78.53       47.99       
C           99.92       78.19       51.7        
C           98.99       78.81       52.53       
S           99.16       77.9        50.13       
H           96.82       79.34       52.46       
H           99.26       79.22       53.46       
C           97.68       78.96       51.92       
C           97.6        78.61       50.66       
C           104.34      76.33       51.49       
C           103.42      77.21       52.09       
N           103.76      75.78       50.42       
C           102.36      76.2        50.34       
C           103.25      78.18       53.17       
O           104.04      78.46       54.05       
O           101.61      75.76       49.48       
C           101.84      80.16       53.28       
C           104.31      74.86       49.39       
H           103.89971   73.85947    49.52676    
H           105.36      74.75       49.6        
H           104.12      75.11       48.32       
H           100.9       80.41       53.8        
H           102.08134   80.7597     52.40238    
H           102.62      80.43       53.97       
N           101.96      78.72       53.03       
C           102.16      77.12       51.47       
C           101.26      77.95       52.12       
C           107.47      74.58       53.36       
C           107.4       75.91       53.6        
S           106.13      74.28       52.27       
H           106.14      77.7        53.09       
H           108.12      76.28       54.33       
C           106.36      76.65       52.91       
C           105.6       75.95       52.06       
C           109.89      71.56       55.53       
C           108.94      71.2        54.54       
C           110.05      72.94       55.58       
N           107.46      71.37       52.88       
N           107.75      70.12       53.12       
N           108.52      69.97       54.19       
C           107.38      69.05       52.17       
H           110.79      73.43       56.22       
H           109.36      74.94       55.13       
H           107.22579   69.44954    51.16766    
H           106.5       68.53       52.58       
H           108.14005   68.26883    52.15592    
C           109.31      73.91       54.87       
C           108.16      72.13       53.8        
C           108.28      73.51       54.0        
H           32.83       48.59       27.54       
H           110.64      70.91       55.92       
