472

C           31.01       24.21       31.98       
C           30.17       25.26       32.23       
S           30.03       22.82       31.78       
H           28.07       25.63       32.65       
H           30.48       26.33       32.29       
C           28.81       24.9        32.4        
C           28.52       23.55       32.1        
C           35.07       26.31       30.45       
C           34.44       25.13       30.9        
N           34.15       27.29       30.27       
C           32.92       26.82       30.87       
C           34.66       23.73       31.32       
O           35.65       23.0        31.17       
O           32.01       27.63       31.12       
C           33.3        21.92       32.09       
C           33.91       28.19       29.17       
H           33.12671    27.81313    28.51233    
H           34.76       28.18       28.43       
H           33.8        29.25       29.41       
H           32.44       21.36       31.62       
H           33.1908     21.79624    33.16743    
H           34.14       21.34       31.69       
N           33.33       23.32       31.58       
C           33.11       25.45       31.27       
C           32.44       24.32       31.7        
C           38.89       27.28       29.73       
C           38.71       25.96       29.7        
S           37.3        28.0        29.87       
H           37.12       24.49       30.33       
H           39.57       25.32       29.64       
C           37.4        25.5        30.05       
C           36.45       26.52       30.1        
C           42.05       29.47       27.59       
C           41.23       30.16       28.43       
C           41.86       28.12       27.63       
N           39.59       30.43       29.86       
N           40.32       31.55       29.74       
N           41.26       31.49       28.81       
C           40.2        32.69       30.63       
H           42.48       27.55       26.94       
H           40.87       26.31       28.24       
H           39.56079    32.3917     31.46098    
H           41.23       32.87       31.0        
H           39.90838    33.6159     30.13424    
C           41.01       27.36       28.46       
C           40.25       29.44       29.2        
C           40.02       28.01       29.12       
C           44.67       30.2        24.71       
C           44.45       31.37       25.42       
S           43.55       29.04       25.36       
H           43.35       32.21       27.03       
H           44.92       32.3        25.09       
C           43.57       31.3        26.43       
C           43.06       30.03       26.67       
C           46.94       31.36       20.6        
C           46.36       30.4        21.42       
N           46.75       32.55       21.23       
C           45.9        32.47       22.41       
C           46.14       28.95       21.69       
O           46.46       27.93       21.07       
O           45.52       33.42       22.98       
C           45.82       27.57       23.66       
C           47.35       33.83       20.95       
H           48.08577    34.08002    21.71435    
H           46.55       34.59       21.02       
H           47.85       33.88       20.01       
H           45.06       27.24       24.52       
H           46.84732    27.468      24.00973    
H           45.58       26.81       22.96       
N           45.62       28.87       22.96       
C           45.83       31.03       22.59       
C           45.33       30.08       23.46       
C           49.7        30.82       17.81       
C           49.49       29.66       18.52       
S           48.45       31.98       18.3        
H           48.3        28.94       20.08       
H           50.25       28.85       18.39       
C           48.5        29.8        19.46       
C           47.94       31.02       19.66       
C           52.83       31.7        14.94       
C           51.97       32.74       15.43       
C           52.52       30.44       15.41       
N           50.19       33.61       16.53       
N           50.82       34.54       15.82       
N           51.93       34.1        15.15       
C           50.61       35.95       16.14       
H           53.11       29.58       15.1        
H           51.4        29.17       16.69       
H           49.59445    36.08588    16.51189    
H           51.36       36.32       16.85       
H           50.74363    36.59003    15.26787    
C           51.49       30.22       16.36       
C           50.94       32.5        16.37       
C           50.71       31.19       16.83       
C           55.56       31.42       12.16       
C           55.03       32.7        12.14       
S           54.81       30.51       13.34       
H           53.66       33.91       13.48       
H           55.28       33.42       11.45       
C           54.11       32.94       13.23       
C           53.89       31.81       13.96       
C           58.1        31.35       8.05        
C           57.68       30.74       9.21        
N           57.26       32.45       7.93        
C           56.33       32.58       8.99        
C           57.92       29.56       10.01       
O           58.8        28.69       10.0        
O           55.52       33.47       9.02        
C           56.91       28.57       11.99       
C           57.0        33.33       6.78        
H           56.17686    32.85043    6.25033     
H           56.69       34.36       7.05        
H           57.93       33.49       6.17        
H           55.84       28.53       12.08       
H           57.3999     28.52801    12.9628     
H           57.2        27.69       11.36       
N           57.18       29.78       11.24       
C           56.67       31.49       9.88        
C           56.3        30.92       11.13       
C           60.87       30.47       5.32        
C           60.99       29.58       6.29        
S           59.5        31.51       5.6         
H           60.08       29.14       8.15        
H           61.7        28.69       6.25        
C           60.11       29.87       7.35        
C           59.2        30.89       7.17        
C           63.5        31.18       1.64        
C           63.65       30.07       2.56        
C           62.48       32.02       2.07        
N           63.22       28.81       4.33        
N           64.23       28.35       3.59        
N           64.49       29.01       2.53        
C           65.02       27.18       4.07        
H           62.22       32.78       1.39        
H           60.92       32.51       3.42        
H           64.47278    26.66878    4.86203     
H           65.18       26.52       3.2         
H           66.01365    27.4599     4.41988     
C           61.71       31.81       3.28        
C           62.83       29.89       3.68        
C           61.78       30.72       4.15        
C           66.34       31.75       -1.09       
C           65.35       32.7        -1.33       
S           65.86       30.76       0.25        
H           63.49       33.41       -0.36       
H           65.44       33.42       -2.13       
C           64.27       32.68       -0.36       
C           64.33       31.56       0.51        
C           69.34       32.42       -4.72       
C           69.03       31.76       -3.62       
N           68.16       32.99       -5.19       
C           67.19       33.0        -4.18       
C           69.5        30.75       -2.64       
O           70.46       29.99       -2.51       
O           66.1        33.58       -4.33       
C           68.81       29.93       -0.44       
C           67.78       33.4        -6.49       
H           67.91258    34.48155    -6.51791    
H           66.78       33.08       -6.83       
H           68.46       32.96       -7.21       
H           67.89       29.49       -0.08       
H           69.37048    30.57352    0.23812     
H           69.47       29.08       -0.71       
N           68.52       30.69       -1.61       
C           67.72       32.13       -3.15       
C           67.49       31.54       -1.92       
C           72.65       32.61       -6.92       
C           72.7        31.48       -6.12       
S           71.16       33.39       -6.67       
H           71.28       30.35       -4.77       
H           73.6        30.82       -6.1        
C           71.5        31.23       -5.36       
C           70.58       32.26       -5.5        
C           75.79       34.59       -9.33       
C           75.74       33.16       -9.11       
C           74.68       35.24       -8.84       
N           74.95       31.24       -8.21       
N           76.07       31.07       -8.92       
N           76.62       32.16       -9.4        
C           76.85       29.88       -8.81       
H           74.58       36.29       -9.01       
H           72.82       35.29       -7.95       
H           76.32127    29.08691    -8.28127    
H           77.25       29.59       -9.79       
H           77.68251    30.03263    -8.12318    
C           73.53       34.61       -8.25       
C           74.73       32.54       -8.32       
C           73.57       33.23       -7.83       
C           78.89       36.79       -9.75       
C           79.12       35.74       -10.6       
S           77.39       36.64       -8.87       
H           77.97       34.1        -11.4       
H           80.05       35.66       -11.11      
C           78.0        34.81       -10.64      
C           76.97       35.28       -9.89       
C           81.29       40.85       -8.63       
C           81.25       39.43       -8.71       
N           79.97       41.26       -8.91       
C           79.17       40.15       -9.36       
C           82.04       38.26       -8.46       
O           83.03       38.07       -7.79       
O           78.02       40.22       -9.8        
C           81.58       35.83       -8.32       
C           79.46       42.52       -8.62       
H           78.63148    42.40473    -7.92116    
H           79.09       42.93       -9.52       
H           80.16       43.25       -8.19       
H           81.37       35.06       -9.06       
H           81.07369    35.75044    -7.35801    
H           82.67       35.88       -8.24       
N           81.21       37.14       -8.84       
C           80.0        38.96       -9.18       
C           80.0        37.63       -9.33       
C           84.15       43.55       -7.87       
C           84.51       42.29       -7.38       
S           82.52       43.38       -8.52       
H           83.51       40.23       -7.03       
H           85.48       42.12       -6.92       
C           83.51       41.18       -7.59       
C           82.38       41.64       -8.17       
C           86.36       47.29       -7.81       
C           84.98       47.34       -8.23       
C           86.9        46.03       -7.55       
N           82.98       46.38       -8.52       
N           82.97       47.71       -8.72       
N           84.16       48.33       -8.64       
C           81.89       48.26       -9.52       
H           87.94       45.88       -7.35       
H           86.67       44.0        -7.38       
H           80.94442    47.73707    -9.37673    
H           81.73       49.34       -9.3        
H           82.18881    48.33114    -10.56583   
C           86.16       44.84       -7.63       
C           84.2        46.1        -8.19       
C           84.81       44.86       -7.8        
C           89.02       50.24       -7.34       
C           87.92       50.76       -7.98       
S           88.77       48.56       -7.03       
H           85.92       50.1        -8.58       
H           87.93       51.74       -8.28       
C           86.89       49.8        -8.18       
C           87.13       48.59       -7.66       
C           92.36       53.42       -8.35       
C           91.95       52.4        -7.53       
N           91.29       53.87       -9.05       
C           90.22       52.9        -9.0        
C           92.26       51.63       -6.42       
O           93.27       51.7        -5.78       
O           89.28       52.93       -9.78       
C           91.38       49.7        -5.25       
C           90.79       55.27       -9.17       
H           90.00887    55.37652    -8.41728    
H           90.33       55.33       -10.16      
H           91.59       56.05       -9.03       
H           91.0        48.75       -5.62       
H           90.80959    49.97464    -4.3627     
H           92.45       49.56       -5.07       
N           91.23       50.66       -6.26       
C           90.63       52.03       -7.9        
C           90.21       50.94       -7.13       
C           95.95       55.03       -8.1        
C           95.3        55.49       -9.17       
S           95.01       53.7        -7.46       
H           93.36       55.39       -10.1       
H           95.67       56.34       -9.77       
C           94.02       54.96       -9.35       
C           93.66       54.01       -8.45       
C           100.04      55.99       -6.86       
C           99.24       55.19       -6.12       
C           99.38       56.63       -7.89       
N           97.4        54.15       -5.52       
N           98.32       53.84       -4.65       
N           99.49       54.59       -4.92       
C           98.05       53.13       -3.4        
H           99.77       57.45       -8.53       
H           97.66       56.82       -9.15       
H           97.02967    52.75102    -3.4583     
H           98.8        52.36       -3.28       
H           98.1499     53.87212    -2.60793    
C           98.02       56.33       -8.22       
C           97.88       54.97       -6.41       
C           97.26       55.39       -7.57       
C           103.79      57.29       -6.8        
C           103.65      56.39       -5.77       
S           102.3       57.34       -7.68       
H           102.07      54.98       -5.04       
H           104.46      56.17       -5.13       
C           102.32      55.83       -5.71       
C           101.47      56.29       -6.62       
C           108.32      58.23       -6.25       
C           107.11      58.63       -6.7        
N           108.34      56.87       -6.09       
C           107.06      56.35       -6.28       
C           106.39      59.77       -7.21       
O           106.63      60.97       -7.51       
O           106.71      55.21       -6.03       
C           104.21      60.06       -8.38       
C           109.34      55.94       -5.76       
H           109.6901    55.55417    -6.71743    
H           110.25      56.37       -5.37       
H           109.02      55.08       -5.18       
H           103.22      59.95       -8.07       
H           104.44099   59.96616    -9.4411     
H           104.38      61.11       -8.0        
N           105.1       59.23       -7.54       
C           106.25      57.54       -6.68       
C           105.0       57.92       -7.17       
C           111.07      60.26       -4.46       
C           110.5       61.06       -5.42       
S           110.4       58.68       -4.58       
H           108.93      60.74       -7.13       
H           110.85      62.09       -5.57       
C           109.55      60.37       -6.26       
C           109.42      59.04       -5.93       
C           114.29      61.23       -1.42       
C           113.8       62.19       -2.43       
C           113.75      60.02       -1.66       
N           112.6       63.01       -4.13       
N           113.39      63.92       -3.63       
N           114.09      63.49       -2.55       
C           113.83      65.14       -4.34       
H           114.18      59.19       -1.11       
H           112.28      58.67       -2.57       
H           113.01935   65.44311    -5.00262    
H           114.07      65.91       -3.62       
H           114.75207   64.87137    -4.85549    
C           112.7       59.73       -2.59       
C           112.81      61.83       -3.44       
C           112.16      60.59       -3.51       
C           116.7       61.14       1.77        
C           116.75      62.34       1.12        
S           115.47      60.22       0.93        
H           115.91      63.4        -0.59       
H           117.37      63.08       1.62        
C           115.9       62.51       0.03        
C           115.22      61.37       -0.36       
C           120.64      61.02       4.43        
C           119.38      60.51       4.24        
N           120.92      61.83       3.34        
C           119.76      62.03       2.47        
C           118.29      59.64       4.77        
O           118.11      58.96       5.74        
O           119.87      62.77       1.54        
C           116.26      58.68       3.76        
C           122.08      62.7        3.21        
H           122.9006    62.05683    2.89211     
H           121.88      63.44       2.43        
H           122.25      63.29       4.07        
H           115.97      58.37       2.8         
H           115.33418   58.92248    4.28169     
H           116.67      57.87       4.29        
N           117.2       59.78       3.79        
C           118.82      61.12       3.07        
C           117.58      60.64       2.79        
C           123.17      59.03       6.64        
C           123.58      60.36       6.62        
S           121.62      58.87       5.92        
H           122.92      62.23       5.59        
H           124.4       60.83       7.15        
C           122.68      61.19       5.88        
C           121.45      60.56       5.48        
C           125.27      55.57       8.66        
C           125.61      56.94       8.79        
C           124.27      55.44       7.65        
N           125.59      59.17       8.3         
N           126.3       58.87       9.3         
N           126.5       57.56       9.62        
C           126.84      59.94       10.22       
H           124.05      54.42       7.32        
H           122.65      56.19       6.48        
H           126.68213   60.89439    9.71769     
H           126.29      59.9        11.1        
H           127.89225   59.76937    10.44751    
C           123.51      56.5        7.06        
C           124.94      58.03       8.06        
C           123.78      57.86       7.26        
C           126.4       52.02       9.98        
C           127.39      52.85       10.3        
S           125.1       52.9        9.2         
H           127.85      54.96       9.9         
H           128.25      52.57       10.84       
C           127.13      54.19       9.84        
C           125.89      54.39       9.26        
C           127.18      47.93       12.51       
C           126.37      48.61       11.63       
N           128.15      48.78       12.9        
C           128.19      49.97       12.09       
C           125.21      48.5        10.81       
O           124.44      47.56       10.59       
O           128.87      50.9        12.45       
C           124.34      49.71       8.84        
C           129.28      48.66       13.88       
H           130.1969    48.45226    13.32843    
H           129.2       47.81       14.59       
H           129.31      49.47       14.6        
H           125.02      50.22       8.12        
H           123.38138   50.22836    8.8613      
H           124.2       48.74       8.46        
N           125.12      49.77       10.07       
C           126.99      49.89       11.33       
C           126.17      50.66       10.49       
C           126.88      44.23       13.98       
C           125.67      44.75       13.57       
S           128.07      45.33       13.47       
H           124.84      46.64       12.75       
H           124.74      44.28       13.85       
C           125.73      46.11       13.08       
C           126.98      46.67       13.14       
C           127.98      40.19       15.26       
C           126.62      40.62       15.09       
C           128.87      41.27       15.1        
N           124.94      41.96       14.6        
N           124.56      40.75       14.93       
N           125.5       39.86       15.06       
C           123.23      40.17       14.82       
H           129.94      41.11       15.24       
H           129.33      43.19       14.38       
H           122.52118   40.98787    14.9495     
H           123.19      39.75       13.82       
H           123.10042   39.46448    15.6407     
C           128.47      42.56       14.68       
C           126.26      41.94       14.8        
C           127.2       42.93       14.55       
C           128.82      36.29       15.92       
C           129.97      37.03       15.88       
S           127.48      37.38       15.89       
H           130.55      39.1        15.35       
H           130.95      36.51       15.73       
C           129.72      38.43       15.65       
C           128.48      38.81       15.55       
C           127.3       31.8        16.62       
C           128.02      32.7        15.85       
N           126.64      32.6        17.63       
C           126.94      33.98       17.37       
C           129.0       32.83       14.75       
O           129.48      31.97       14.1        
O           126.36      34.87       18.02       
C           130.06      34.65       13.42       
C           125.84      32.26       18.83       
H           126.55169   32.25288    19.65556    
H           125.47      31.25       18.77       
H           124.95      32.91       18.92       
H           131.03      34.99       13.78       
H           129.62963   35.46052    12.83183    
H           130.23      33.73       12.8        
N           129.29      34.19       14.59       
C           127.85      34.03       16.25       
C           128.72      34.93       15.6        
C           126.81      27.78       16.58       
C           127.74      28.12       15.72       
S           126.39      29.24       17.46       
H           128.92      29.94       15.11       
H           128.27      27.32       15.24       
C           128.08      29.56       15.66       
C           127.3       30.34       16.46       
C           125.12      23.84       17.6        
C           124.76      24.97       18.37       
C           126.13      24.12       16.69       
N           124.69      27.19       18.87       
N           123.98      26.41       19.71       
N           124.0       25.15       19.49       
C           123.21      26.86       20.9        
H           126.61      23.26       16.15       
H           127.29      25.4        15.52       
H           123.66148   26.32969    21.73847    
H           122.1       26.73       20.74       
H           123.4153    27.92899    20.95664    
C           126.61      25.39       16.32       
C           125.22      26.3        18.0        
C           126.17      26.49       16.93       
H           27.67       23.23       31.56       
H           124.28      23.2        17.29       
