472

C           74.79       97.58       7.43        
C           74.65       97.5        8.77        
S           73.24       97.54       6.71        
H           72.99       97.45       10.25       
H           75.45       97.47       9.49        
C           73.21       97.55       9.19        
C           72.33       97.61       8.15        
C           79.22       99.41       6.99        
C           78.06       98.9        6.4         
N           79.21       98.91       8.31        
C           77.99       98.13       8.57        
C           77.42       98.8        5.13        
O           77.8        99.11       4.01        
O           77.67       97.73       9.68        
C           75.48       97.51       4.22        
C           80.29       98.61       9.24        
H           80.51851    97.54854    9.14417     
H           80.03       98.9        10.31       
H           81.2        99.21       9.02        
H           74.42       97.63       4.29        
H           75.83406    96.48322    4.12794     
H           75.79       98.12       3.37        
N           76.18       98.07       5.36        
C           77.23       98.2        7.32        
C           76.06       97.86       6.72        
C           82.41       101.44      5.75        
C           81.91       100.69      4.69        
S           81.51       101.01      7.17        
H           80.07       99.59       4.25        
H           82.3        100.82      3.68        
C           80.65       99.99       5.01        
C           80.36       99.98       6.34        
C           85.44       104.72      6.0         
C           85.09       104.13      4.77        
C           84.71       104.18      7.03        
N           84.08       102.73      3.33        
N           84.9        103.58      2.72        
N           85.54       104.41      3.53        
C           85.15       103.72      1.28        
H           84.84       104.5       8.05        
H           83.21       102.93      7.81        
H           84.74197    102.86816   0.73596     
H           84.78       104.62      0.88        
H           86.21672    103.88517   1.12859     
C           83.73       103.17      6.93        
C           84.1        103.06      4.63        
C           83.47       102.5       5.76        
C           88.22       107.4       6.97        
C           87.93       107.59      5.68        
S           87.27       106.02      7.55        
H           86.84       106.64      4.04        
H           88.56       108.21      5.06        
C           86.98       106.65      5.12        
C           86.47       105.75      6.06        
C           92.49       109.34      7.7         
C           91.35       108.85      8.26        
N           92.3        109.35      6.38        
C           91.19       108.61      5.99        
C           90.71       108.46      9.53        
O           91.08       108.53      10.72       
O           90.92       108.49      4.84        
C           88.4        108.13      10.08       
C           93.18       109.64      5.31        
H           93.80984    108.85447   4.89246     
H           93.77       110.45      5.62        
H           92.58       110.04      4.49        
H           87.98       107.09      10.24       
H           87.54384    108.74558   9.80405     
H           88.88       108.37      11.02       
N           89.44       108.06      9.08        
C           90.44       108.46      7.24        
C           89.34       107.9       7.75        
C           95.87       110.55      9.42        
C           94.85       110.72      10.25       
S           95.28       110.0       7.86        
H           92.63       110.33      10.38       
H           95.05       111.06      11.22       
C           93.55       110.33      9.78        
C           93.64       109.97      8.4         
C           100.28      110.53      9.8         
C           99.43       110.78      10.94       
C           99.53       110.31      8.66        
N           97.5        111.11      12.11       
N           98.67       111.09      12.84       
N           99.82       110.97      12.21       
C           98.56       110.86      14.31       
H           100.08      109.92      7.76        
H           97.76       110.05      7.48        
H           97.51979    110.81696   14.63282    
H           99.15       109.96      14.42       
H           99.03641    111.66349   14.87173    
C           98.14       110.26      8.52        
C           97.98       110.83      10.87       
C           97.32       110.53      9.62        
C           103.99      109.62      9.01        
C           104.04      110.36      10.15       
S           102.37      109.51      8.42        
H           102.53      111.22      11.54       
H           104.93      110.42      10.79       
C           102.74      110.75      10.58       
C           101.75      110.44      9.75        
C           106.2       106.06      6.57        
C           106.26      107.29      7.23        
N           104.83      105.64      6.73        
C           104.05      106.63      7.39        
C           107.22      108.31      7.66        
O           108.41      108.49      7.41        
O           102.87      106.54      7.43        
C           106.96      110.62      8.7         
C           104.22      104.39      6.39        
H           103.9101    104.2867    5.3501      
H           104.91      103.54      6.51        
H           103.36      104.09      7.1         
H           106.83      110.7       9.76        
H           106.52597   111.40668   8.08286     
H           107.99      110.49      8.5         
N           106.42      109.26      8.4         
C           105.0       107.68      7.79        
C           105.13      108.85      8.51        
C           108.97      103.51      5.32        
C           109.46      104.8       5.19        
S           107.29      103.67      5.68        
H           108.82      106.81      5.81        
H           110.49      105.06      5.0         
C           108.56      105.79      5.72        
C           107.26      105.34      5.97        
C           110.75      99.53       4.88        
C           111.42      100.67      4.37        
C           109.56      99.81       5.47        
N           111.76      102.85      3.95        
N           112.87      102.1       3.67        
N           112.66      100.81      3.84        
C           113.88      102.53      2.7         
H           109.2       99.06       6.12        
H           108.19      101.14      6.23        
H           113.85216   103.61588   2.60951     
H           114.88      102.26      3.0         
H           113.68586   102.12092   1.7085      
C           109.02      101.09      5.67        
C           110.85      101.93      4.54        
C           109.56      102.22      5.05        
C           112.01      95.87       5.64        
C           113.12      96.69       5.49        
S           110.57      96.81       5.49        
H           113.52      98.84       5.14        
H           114.11      96.31       5.56        
C           112.78      98.02       5.22        
C           111.43      98.24       5.07        
C           113.78      91.57       7.11        
C           112.71      92.32       6.71        
N           114.9       92.39       7.11        
C           114.53      93.7        6.73        
C           111.26      92.27       6.49        
O           110.35      91.44       6.65        
O           115.36      94.6        6.73        
C           109.59      93.7        5.55        
C           116.34      92.18       7.44        
H           116.86746   92.0293     6.4981      
H           116.54      91.38       8.12        
H           116.78      93.01       7.83        
H           109.63      94.49       4.8         
H           108.84647   93.98711    6.29353     
H           109.45      92.83       4.94        
N           110.93      93.63       6.05        
C           113.1       93.68       6.44        
C           112.04      94.49       6.04        
C           114.22      87.95       8.54        
C           112.88      88.18       8.22        
S           115.12      89.24       7.95        
H           111.64      89.78       7.4         
H           112.14      87.4        8.22        
C           112.62      89.48       7.68        
C           113.74      90.22       7.61        
C           116.38      84.51       10.17       
C           115.09      84.38       9.66        
C           116.88      85.74       10.12       
N           113.11      84.99       8.78        
N           113.18      83.68       9.06        
N           114.24      83.29       9.67        
C           111.93      82.86       9.12        
H           117.93      85.96       10.54       
H           116.72      87.84       9.66        
H           111.25371   82.98681    8.27463     
H           112.25      81.84       9.2         
H           111.46623   83.07015    10.08377    
C           116.19      86.87       9.61        
C           114.37      85.47       9.15        
C           114.92      86.77       9.02        
C           118.26      81.36       11.54       
C           119.01      82.44       11.89       
S           117.1       81.86       10.42       
H           118.78      84.68       11.73       
H           120.0       82.33       12.44       
C           118.42      83.68       11.47       
C           117.26      83.53       10.77       
C           120.81      77.7        13.14       
C           119.62      78.13       12.56       
N           121.79      78.63       12.99       
C           121.27      79.84       12.34       
C           118.31      77.74       12.24       
O           117.67      76.68       12.47       
O           121.92      80.95       12.24       
C           116.57      78.76       10.9        
C           123.26      78.41       12.85       
H           123.4841    78.26994    11.79252    
H           123.59      77.54       13.4        
H           123.83      79.21       13.19       
H           116.71      79.38       10.05       
H           115.59054   78.83981    11.37159    
H           116.65      77.69       10.58       
N           117.72      79.01       11.8        
C           119.83      79.53       12.15       
C           118.61      80.03       11.81       
C           120.85      73.86       14.29       
C           121.9       74.42       14.85       
S           119.95      74.98       13.34       
H           122.85      76.41       14.82       
H           122.63      73.91       15.54       
C           122.01      75.81       14.5        
C           121.01      76.29       13.67       
C           119.14      69.94       15.1        
C           120.14      70.48       15.92       
C           118.8       70.69       14.03       
N           121.53      72.02       16.71       
N           121.58      70.92       17.33       
N           120.62      70.03       17.09       
C           122.67      70.72       18.29       
H           117.98      70.34       13.46       
H           118.98      72.45       12.87       
H           123.53625   71.33476    18.04549    
H           122.25      70.99       19.26       
H           122.93189   69.66535    18.37494    
C           119.37      71.94       13.76       
C           120.78      71.71       15.61       
C           120.32      72.55       14.58       
C           116.24      67.1        15.72       
C           117.06      67.15       16.86       
S           117.12      67.99       14.55       
H           118.83      68.25       17.62       
H           116.94      66.57       17.78       
C           118.18      68.07       16.76       
C           118.32      68.78       15.54       
C           112.93      63.83       16.68       
C           113.48      64.7        15.78       
N           113.51      64.03       17.91       
C           114.56      65.0        17.76       
C           113.37      65.16       14.37       
O           112.62      64.72       13.52       
O           115.33      65.21       18.71       
C           114.44      66.94       13.06       
C           112.98      63.59       19.24       
H           112.33145   64.34057    19.6918     
H           113.85      63.34       19.92       
H           112.5       62.67       19.2        
H           115.41      66.85       12.6        
H           114.17086   67.98665    13.20205    
H           113.65      66.54       12.44       
N           114.4       66.18       14.29       
C           114.54      65.41       16.38       
C           115.15      66.22       15.47       
C           109.32      62.68       15.84       
C           109.97      61.69       16.55       
S           110.35      64.13       15.85       
H           112.04      61.37       17.3        
H           109.48      60.77       16.87       
C           111.32      62.06       16.88       
C           111.72      63.2        16.37       
C           105.38      62.71       13.73       
C           105.8       61.72       14.55       
C           106.37      63.66       13.55       
N           107.1       60.54       15.97       
N           105.9       60.01       15.72       
N           105.09      60.59       14.85       
C           105.45      58.78       16.36       
H           106.18      64.31       12.8        
H           108.38      64.27       13.6        
H           106.24586   58.30249    16.93157    
H           104.66      59.05       17.03       
H           105.02313   58.07773    15.64396    
C           107.7       63.55       14.05       
C           107.04      61.71       15.26       
C           108.02      62.7        15.14       
C           102.51      62.62       11.06       
C           101.96      62.12       12.2        
S           104.12      63.02       11.29       
H           102.8       61.63       14.29       
H           100.99      61.53       12.28       
C           102.93      62.11       13.32       
C           104.1       62.68       12.98       
C           102.26      63.28       6.36        
C           101.64      63.1        7.51        
N           103.59      63.45       6.68        
C           103.85      63.37       8.09        
C           100.29      62.99       8.09        
O           99.17       63.04       7.67        
O           104.96      63.64       8.57        
C           99.31       62.76       10.33       
C           104.78      63.39       5.86        
H           105.07614   64.356      5.45104     
H           105.61      62.93       6.4         
H           104.48      62.66       5.08        
H           99.5        63.23       11.3        
H           98.89659    61.75602    10.42597    
H           98.54       63.4        9.89        
N           100.46      62.82       9.49        
C           102.51      63.04       8.63        
C           101.83      62.7        9.77        
C           100.81      64.01       2.72        
C           99.82       63.32       3.44        
S           102.17      64.21       3.71        
H           99.57       62.61       5.56        
H           98.81       63.12       3.03        
C           100.26      62.99       4.82        
C           101.57      63.33       5.09        
C           100.65      66.08       -1.17       
C           99.6        65.26       -0.73       
C           101.67      66.21       -0.27       
N           98.52       63.84       0.65        
N           97.91       63.99       -0.5        
N           98.42       64.95       -1.33       
C           96.8        63.16       -0.96       
H           102.52      66.85       -0.56       
H           102.54      65.76       1.55        
H           96.92106    62.17728    -0.50425    
H           95.85       63.71       -0.73       
H           96.82121    63.11757    -2.04897    
C           101.7       65.49       0.93        
C           99.69       64.53       0.5         
C           100.74      64.66       1.39        
C           101.66      68.03       -4.47       
C           100.88      66.98       -4.79       
S           101.7       68.12       -2.76       
H           99.82       65.26       -3.75       
H           100.55      66.69       -5.78       
C           100.43      66.24       -3.71       
C           100.85      66.63       -2.46       
C           102.96      70.24       -8.53       
C           102.99      70.27       -7.16       
N           102.04      69.27       -8.94       
C           101.72      68.44       -7.83       
C           103.53      70.96       -5.93       
O           104.21      71.98       -5.77       
O           101.1       67.38       -8.0        
C           103.75      70.42       -3.6        
C           101.44      69.07       -10.22      
H           100.89089   69.94716    -10.5623    
H           102.18      68.81       -10.93      
H           100.77      68.24       -10.33      
H           103.86      69.54       -2.92       
H           103.35106   71.24689    -3.01247    
H           104.83      70.54       -3.92       
N           103.06      70.15       -4.84       
C           102.19      69.15       -6.64       
C           102.28      69.04       -5.27       
C           105.03      72.2        -11.28      
C           105.06      72.89       -10.09      
S           103.94      70.89       -11.1       
H           104.11      72.6        -8.07       
H           105.59      73.82       -9.96       
C           104.24      72.2        -9.08       
C           103.58      71.1        -9.42       
C           106.83      73.09       -15.26      
C           107.13      73.85       -14.08      
C           105.98      72.02       -14.97      
N           107.04      74.54       -11.88      
N           107.94      75.22       -12.63      
N           107.98      74.88       -13.92      
C           108.57      76.36       -12.03      
H           105.66      71.39       -15.78      
H           104.65      70.91       -13.73      
H           108.45519   76.3313     -10.94644   
H           109.59      76.4        -12.36      
H           108.10579   77.28138    -12.38167   
C           105.36      71.76       -13.73      
C           106.59      73.52       -12.75      
C           105.62      72.49       -12.54      
C           109.17      73.27       -18.44      
C           108.09      72.47       -18.72      
S           108.97      73.97       -16.88      
H           106.21      71.87       -17.69      
H           108.12      71.89       -19.57      
C           107.14      72.46       -17.7       
C           107.44      73.18       -16.61      
C           112.35      71.76       -21.51      
C           111.85      72.81       -20.78      
N           111.49      70.62       -21.31      
C           110.56      70.94       -20.28      
C           112.02      74.22       -20.48      
O           112.77      75.02       -21.07      
O           109.67      70.15       -19.86      
C           110.83      75.82       -19.04      
C           111.23      69.45       -22.17      
H           111.64239   68.56833    -21.67939   
H           111.73      69.52       -23.13      
H           110.11      69.42       -22.29      
H           110.6       75.76       -17.96      
H           109.96214   76.3378     -19.44841   
H           111.74      76.39       -19.25      
N           111.0       74.51       -19.64      
C           110.79      72.34       -19.94      
C           110.34      73.38       -19.21      
C           115.32      71.15       -24.01      
C           114.93      72.47       -24.08      
S           114.18      70.31       -22.96      
H           113.48      73.75       -22.96      
H           115.54      73.23       -24.55      
C           113.86      72.77       -23.17      
C           113.33      71.71       -22.52      
C           118.79      68.85       -25.54      
C           118.67      70.25       -25.8       
C           117.81      68.25       -24.79      
N           117.67      72.29       -25.72      
N           118.93      72.28       -26.24      
N           119.59      71.15       -26.33      
C           119.36      73.58       -26.63      
H           117.84      67.26       -24.35      
H           115.93      68.55       -23.82      
H           118.52749   74.27846    -26.71466   
H           120.01      73.97       -25.74      
H           119.91745   73.48121    -27.56144   
C           116.72      69.07       -24.31      
C           117.5       70.99       -25.44      
C           116.46      70.42       -24.59      
C           122.39      67.29       -26.36      
C           121.77      66.41       -25.57      
S           121.34      68.59       -26.74      
H           119.73      66.18       -24.75      
H           122.23      65.49       -25.16      
C           120.41      66.77       -25.3       
C           120.04      68.07       -25.72      
C           126.97      65.78       -26.58      
C           125.95      66.52       -27.12      
N           126.47      65.15       -25.5       
C           125.02      65.42       -25.32      
C           125.63      67.4        -28.18      
O           126.28      67.84       -29.15      
O           124.35      64.97       -24.34      
C           123.56      68.37       -29.13      
C           127.05      64.75       -24.25      
H           127.18165   63.66907    -24.2015    
H           126.48      65.14       -23.41      
H           128.02      65.25       -24.12      
H           123.12      69.26       -28.78      
H           122.801     67.70497    -29.54203   
H           124.21      68.7        -29.96      
N           124.28      67.79       -27.99      
C           124.73      66.45       -26.33      
C           123.77      67.24       -26.81      
C           130.56      64.77       -27.81      
C           130.05      65.67       -28.67      
S           129.46      64.46       -26.52      
H           128.32      67.01       -28.85      
H           130.47      66.03       -29.64      
C           128.8       66.25       -28.23      
C           128.3       65.64       -27.12      
C           134.12      62.14       -28.22      
C           133.87      63.18       -29.11      
C           133.14      61.96       -27.31      
N           132.88      65.06       -29.85      
N           133.93      64.71       -30.55      
N           134.61      63.64       -30.12      
C           134.44      65.48       -31.63      
H           133.26      61.2        -26.49      
H           131.44      62.78       -26.23      
H           135.52603   65.3912     -31.65732   
H           134.1       66.52       -31.48      
H           133.96395   65.09632    -32.53237   
C           132.02      62.85       -27.13      
C           132.72      64.0        -29.0       
C           131.73      63.85       -28.0       
H           71.45       98.3        8.21        
H           134.46      61.16       -28.72      
