472

C           47.79       50.12       66.25       
C           46.9        51.14       66.52       
S           49.24       50.45       67.18       
H           46.72       52.86       67.98       
H           46.0        51.29       65.94       
C           47.31       52.04       67.57       
C           48.49       51.69       68.18       
C           46.21       48.1        62.16       
C           47.06       48.09       63.16       
N           45.31       49.05       62.43       
C           45.67       49.87       63.52       
C           48.18       47.49       63.69       
O           48.78       46.55       63.16       
O           45.09       50.91       63.92       
C           49.52       47.52       65.81       
C           44.12       49.53       61.75       
H           43.24504    49.23353    62.32849    
H           44.07       49.13       60.78       
H           44.19       50.56       61.54       
H           49.35       47.72       66.83       
H           50.49099    47.85872    65.4487     
H           49.51       46.37       65.79       
N           48.46       48.03       65.01       
C           46.79       49.15       64.1        
C           47.7        49.16       65.16       
C           45.42       45.58       59.16       
C           46.67       45.37       59.6        
S           44.73       46.85       60.04       
H           48.1        46.27       61.02       
H           47.27       44.57       59.18       
C           47.08       46.29       60.61       
C           46.13       47.2        61.0        
C           43.21       42.95       56.23       
C           44.44       42.64       56.81       
C           42.82       44.24       56.53       
N           46.12       42.62       58.34       
N           46.04       41.5        57.6        
N           45.17       41.51       56.6        
C           46.74       40.27       57.92       
H           42.0        44.68       56.06       
H           43.07       45.97       57.78       
H           47.67443    40.4678     58.44519    
H           46.07       39.69       58.53       
H           46.91831    39.7636     56.97139    
C           43.56       45.02       57.53       
C           45.05       43.42       57.88       
C           44.69       44.73       58.24       
C           41.39       41.71       52.96       
C           42.64       41.15       53.03       
S           41.23       42.74       54.35       
H           44.47       41.14       54.35       
H           43.09       40.56       52.23       
C           43.43       41.45       54.16       
C           42.79       42.34       54.98       
C           39.59       40.11       48.85       
C           39.42       40.84       49.95       
N           40.85       39.53       48.87       
C           41.5        39.79       50.12       
C           38.52       41.68       50.62       
O           37.5        42.26       50.34       
O           42.56       39.37       50.38       
C           38.18       42.24       53.03       
C           41.65       38.87       47.84       
H           41.84731    37.84819    48.16416    
H           42.62       39.39       47.71       
H           41.19       38.85       46.84       
H           38.55       43.14       53.52       
H           38.17269    41.37688    53.69563    
H           37.18       42.41       52.65       
N           39.1        42.01       51.85       
C           40.59       40.69       50.8        
C           40.42       41.51       51.91       
C           37.16       39.12       45.87       
C           36.88       40.39       46.32       
S           38.54       38.57       46.77       
H           37.59       41.87       47.83       
H           36.07       40.98       45.94       
C           37.74       40.87       47.38       
C           38.7        40.0        47.72       
C           34.78       36.82       42.9        
C           35.89       36.23       43.52       
C           34.46       38.12       43.37       
N           37.55       36.12       44.95       
N           37.51       35.02       44.23       
N           36.45       34.99       43.39       
C           38.41       33.92       44.6        
H           33.54       38.66       43.03       
H           34.89       39.89       44.47       
H           39.00138    34.14692    45.48706    
H           37.67       33.15       44.82       
H           39.01553    33.59943    43.75226    
C           35.28       38.91       44.29       
C           36.64       36.97       44.47       
C           36.42       38.34       44.83       
C           32.43       34.53       40.71       
C           32.9        35.55       39.89       
S           33.21       34.56       42.26       
H           34.28       37.32       40.22       
H           32.53       35.65       38.91       
C           33.77       36.46       40.62       
C           34.0        36.06       41.91       
C           28.45       33.18       38.34       
C           29.56       32.8        39.17       
N           28.7        34.57       38.12       
C           29.88       35.08       38.77       
C           30.27       31.7        39.84       
O           30.07       30.49       39.89       
O           30.18       36.25       38.82       
C           32.56       31.52       41.02       
C           27.92       35.54       37.33       
H           27.3735     36.31362    37.8694     
H           28.64       36.05       36.74       
H           27.18       35.17       36.68       
H           32.84       31.76       42.03       
H           33.47424    31.54857    40.42717    
H           32.25       30.5        40.92       
N           31.42       32.33       40.53       
C           30.42       33.92       39.43       
C           31.41       33.65       40.38       
C           25.02       31.51       37.11       
C           25.93       30.55       37.5        
S           25.81       33.02       37.24       
H           27.83       30.29       38.45       
H           25.73       29.49       37.33       
C           27.18       31.07       38.02       
C           27.26       32.41       37.94       
C           21.95       31.51       34.08       
C           21.89       32.36       35.26       
C           23.02       30.63       34.04       
N           22.6        33.26       37.19       
N           21.59       33.92       36.64       
N           21.22       33.53       35.43       
C           20.92       34.87       37.51       
H           23.25       30.08       33.15       
H           24.71       29.74       34.92       
H           21.41578    34.88397    38.48062    
H           20.89       35.88       37.1        
H           19.86807    34.60142    37.60699    
C           23.87       30.47       35.16       
C           22.8        32.26       36.33       
C           23.86       31.35       36.28       
C           20.08       32.82       30.81       
C           20.54       31.57       30.56       
S           20.61       33.28       32.34       
H           21.49       29.95       31.73       
H           20.41       30.99       29.66       
C           21.15       30.94       31.71       
C           21.23       31.73       32.83       
C           19.09       34.83       26.55       
C           19.07       34.91       27.92       
N           19.83       33.68       26.23       
C           20.13       32.86       27.44       
C           18.57       35.77       28.99       
O           17.83       36.79       28.99       
O           20.52       31.73       27.42       
C           18.42       35.49       31.43       
C           20.59       33.29       25.07       
H           21.64832    33.41239    25.30038    
H           20.36       33.94       24.25       
H           20.41       32.28       24.76       
H           19.04       35.37       32.32       
H           17.42645    35.11917    31.68189    
H           18.44       36.57       31.4        
N           18.95       35.0        30.15       
C           19.59       33.7        28.55       
C           19.6        33.8        29.87       
C           18.44       38.01       24.4        
C           18.45       36.93       23.55       
S           18.75       37.49       26.03       
H           18.36       34.73       23.83       
H           18.33       37.0        22.5        
C           18.57       35.66       24.27       
C           18.7        35.82       25.58       
C           18.9        42.26       23.56       
C           18.57       41.82       24.83       
C           18.66       41.32       22.56       
N           18.15       40.36       26.46       
N           18.36       41.59       26.89       
N           18.4        42.52       26.0        
C           18.77       41.83       28.23       
H           18.73       41.62       21.53       
H           18.51       39.23       21.99       
H           18.59631    40.94709    28.84514    
H           19.86       41.98       28.16       
H           18.19482    42.68212    28.59215    
C           18.56       39.91       22.83       
C           18.32       40.44       25.09       
C           18.41       39.4        24.09       
C           20.37       45.9        22.95       
C           19.1        45.98       23.47       
S           20.86       44.22       22.78       
H           17.46       44.51       23.82       
H           18.55       46.94       23.56       
C           18.47       44.71       23.55       
C           19.3        43.67       23.38       
C           24.24       48.46       21.78       
C           23.13       48.26       22.58       
N           24.46       47.26       21.1        
C           23.27       46.34       21.31       
C           22.4        48.86       23.65       
O           22.72       49.84       24.33       
O           23.16       45.28       20.75       
C           20.58       48.07       25.16       
C           25.72       46.58       21.03       
H           25.84703    45.9237     21.89095    
H           26.6        47.23       21.09       
H           25.79       46.06       20.08       
H           20.43       47.02       25.54       
H           19.67182    48.67057    25.21127    
H           21.32       48.5        25.86       
N           21.25       48.05       23.82       
C           22.48       47.04       22.29       
C           21.3        46.98       22.94       
C           26.44       51.8        21.81       
C           26.86       50.97       20.79       
S           25.16       51.0        22.67       
H           26.25       49.02       19.88       
H           27.56       51.35       20.07       
C           26.14       49.68       20.74       
C           25.16       49.55       21.73       
C           27.33       56.11       22.62       
C           27.98       55.36       21.62       
C           26.41       55.38       23.26       
N           28.6        53.67       20.39       
N           29.22       54.79       20.05       
N           28.97       55.79       20.83       
C           30.3        54.87       19.08       
H           25.99       55.91       24.08       
H           25.26       53.59       23.65       
H           29.95208    54.39623    18.16207    
H           30.56       55.88       18.9        
H           31.17315    54.3531     19.47815    
C           26.09       53.98       23.02       
C           27.72       54.02       21.35       
C           26.69       53.26       22.0        
C           28.84       59.55       24.01       
C           27.52       59.61       23.84       
S           29.36       58.03       23.31       
H           25.77       58.26       23.19       
H           27.01       60.42       24.29       
C           26.81       58.45       23.33       
C           27.7        57.5        22.95       
C           30.13       63.02       27.11       
C           30.46       61.92       26.32       
N           28.76       63.12       27.0        
C           28.23       62.22       26.05       
C           31.59       61.18       25.83       
O           32.8        61.24       26.02       
O           27.0        62.02       25.98       
C           32.01       59.45       24.12       
C           27.83       63.95       27.77       
H           27.54721    64.75699    27.09406    
H           28.33       64.37       28.65       
H           26.98       63.51       28.23       
H           31.65       59.12       23.16       
H           32.19477    58.56169    24.72405    
H           32.94       60.06       23.94       
N           31.07       60.29       24.83       
C           29.36       61.46       25.6        
C           29.69       60.38       24.74       
C           32.82       64.34       29.75       
C           31.9        65.3        29.41       
S           32.42       62.97       28.91       
H           30.16       65.61       27.87       
H           31.98       66.24       29.85       
C           30.94       64.95       28.43       
C           30.95       63.63       28.1        
C           36.17       64.72       32.58       
C           36.04       63.58       31.78       
C           35.26       65.72       32.36       
N           35.15       62.37       30.18       
N           36.26       61.85       30.68       
N           36.91       62.53       31.55       
C           36.68       60.53       30.27       
H           35.36       66.7        32.88       
H           33.52       66.51       31.27       
H           35.82977    60.0513     29.78415    
H           37.45       60.65       29.55       
H           37.17452    59.95429    31.05237    
C           34.2        65.63       31.39       
C           34.96       63.52       30.85       
C           33.99       64.51       30.61       
C           38.47       65.8        35.59       
C           38.98       64.63       35.09       
S           37.29       66.4        34.43       
H           38.6        63.32       33.34       
H           39.89       64.25       35.55       
C           38.3        64.17       33.98       
C           37.24       64.96       33.51       
C           41.14       67.35       39.36       
C           39.97       67.48       38.64       
N           41.77       66.19       38.89       
C           41.11       65.56       37.77       
C           38.77       68.24       38.46       
O           38.17       69.02       39.1        
O           41.53       64.48       37.28       
C           36.72       67.99       37.18       
C           42.75       65.41       39.55       
H           43.7461     65.59368    39.14732    
H           42.74       65.54       40.64       
H           42.54       64.33       39.37       
H           36.11       67.17       36.84       
H           36.50419    68.90361    36.62608    
H           36.42       68.09       38.2        
N           38.1        67.62       37.34       
C           39.96       66.43       37.6        
C           38.88       66.61       36.77       
C           42.69       69.73       42.14       
C           41.69       70.38       41.43       
S           42.73       68.05       41.64       
H           40.26       69.92       39.75       
H           41.46       71.39       41.52       
C           41.04       69.58       40.44       
C           41.61       68.33       40.3        
C           44.56       71.79       45.51       
C           45.18       70.61       45.02       
C           43.32       72.14       44.92       
N           45.58       69.04       43.45       
N           46.53       69.08       44.36       
N           46.34       69.93       45.35       
C           47.58       68.13       44.48       
H           42.82       73.09       45.12       
H           41.84       71.83       43.39       
H           47.49413    67.42875    43.64995    
H           48.53       68.63       44.39       
H           47.47768    67.64762    45.45208    
C           42.79       71.44       43.79       
C           44.67       69.99       43.81       
C           43.44       70.36       43.21       
C           45.72       74.65       48.06       
C           46.49       73.51       48.18       
S           44.49       74.28       46.84       
H           46.7        71.4        47.35       
H           47.36       73.49       48.82       
C           46.16       72.44       47.3        
C           45.16       72.7        46.47       
C           47.38       77.96       51.1        
C           46.5        77.62       50.12       
N           48.03       76.86       51.43       
C           47.77       75.73       50.56       
C           45.51       78.19       49.24       
O           45.12       79.34       49.1        
O           48.16       74.58       50.8        
C           44.44       77.52       47.16       
C           48.68       76.57       52.74       
H           49.76735    76.57688    52.6643     
H           48.24       77.09       53.58       
H           48.43       75.52       52.98       
H           43.64       76.82       46.93       
H           45.0582     77.88661    46.34053    
H           43.82       78.34       47.46       
N           45.14       77.11       48.36       
C           46.73       76.26       49.76       
C           45.84       75.94       48.72       
C           46.64       81.39       52.79       
C           47.91       81.06       53.04       
S           45.78       80.12       51.93       
H           49.28       79.41       52.62       
H           48.59       81.65       53.59       
C           48.28       79.83       52.52       
C           47.35       79.23       51.72       
C           44.62       85.4        52.93       
C           45.83       85.06       53.57       
C           44.01       84.23       52.41       
N           47.55       83.81       54.5        
N           47.69       85.13       54.77       
N           46.69       85.9        54.32       
C           49.0        85.68       55.04       
H           43.04       84.35       52.07       
H           44.02       82.13       52.05       
H           49.76007    84.89901    55.01908    
H           49.19       86.3        54.13       
H           49.0        86.25833    55.96392    
C           44.68       82.95       52.39       
C           46.45       83.79       53.72       
C           45.9        82.71       52.98       
C           42.62       88.52       54.3        
C           42.45       88.4        52.93       
S           43.77       87.33       54.69       
H           42.9        87.1        51.25       
H           41.78       89.0        52.32       
C           43.09       87.31       52.27       
C           43.86       86.63       53.11       
C           40.75       92.83       55.56       
C           41.31       91.6        55.93       
N           40.57       92.86       54.2        
C           40.93       91.52       53.65       
C           41.64       90.83       57.09       
O           41.67       91.1        58.26       
O           40.64       91.25       52.49       
C           42.43       88.51       57.44       
C           40.64       94.1        53.36       
H           41.34138    94.05833    52.52668    
H           40.95       94.9        53.99       
H           39.63       94.32       52.94       
H           43.4        87.98       57.37       
H           41.52065    87.9515     57.66197    
H           42.65       88.97       58.36       
N           42.14       89.56       56.49       
C           41.45       90.75       54.74       
C           42.14       89.59       55.08       
C           39.87       95.32       58.61       
C           39.12       95.64       57.51       
S           40.99       94.09       58.1        
H           38.94       94.86       55.28       
H           38.41       96.44       57.62       
C           39.39       94.81       56.33       
C           40.4        93.88       56.53       
C           39.22       96.81       62.75       
C           39.93       95.58       62.42       
C           38.8        97.42       61.63       
N           40.86       93.92       61.19       
N           41.05       93.66       62.46       
N           40.55       94.66       63.25       
C           41.42       92.32       62.93       
H           38.16       98.23       61.62       
H           38.82       97.54       59.38       
H           41.94772    91.86866    62.08982    
H           42.04       92.36       63.79       
H           40.50588    91.75747    63.11986    
C           39.13       97.0        60.28       
C           40.18       95.08       61.1        
C           39.78       95.83       59.99       
C           37.55       97.78       66.17       
C           38.56       96.89       66.47       
S           37.48       98.15       64.46       
H           40.12       95.82       65.34       
H           38.81       96.54       67.43       
C           39.23       96.5        65.26       
C           38.81       97.07       64.12       
C           35.62       98.39       70.63       
C           35.43       98.5        69.25       
N           36.97       98.05       70.8        
C           37.63       97.94       69.53       
C           34.58       98.86       68.17       
O           33.37       99.15       68.14       
O           38.85       97.99       69.43       
C           34.62       98.83       65.66       
C           37.39       97.15       71.81       
H           37.39       96.1188     71.45685    
H           36.72       97.07       72.63       
H           38.33       97.47       72.28       
H           34.84       98.07       64.93       
H           34.71181    99.84697    65.27864    
H           33.6        98.56       65.97       
N           35.34       98.71       66.92       
C           36.65       98.19       68.55       
C           36.62       98.29       67.17       
C           33.05       99.22       73.54       
C           32.39       99.04       72.39       
S           34.69       98.77       73.37       
H           32.93       98.62       70.29       
H           31.35       99.25       72.21       
C           33.23       98.69       71.3        
C           34.55       98.56       71.67       
C           31.75       101.38      77.27       
C           30.88       101.06      76.2        
C           33.03       100.91      77.02       
N           30.24       100.27      74.22       
N           29.25       100.92      74.89       
N           29.62       101.41      76.03       
C           27.96       101.22      74.16       
H           33.77       101.09      77.82       
H           34.39       99.69       75.87       
H           27.13642    100.68751   74.63569    
H           28.05       100.86      73.14       
H           27.7273     102.28478   74.1741     
C           33.38       100.16      75.87       
C           31.26       100.27      75.04       
C           32.56       99.85       74.79       
H           48.66       51.68       69.25       
H           31.48       102.24      77.83       
