472

C           72.09       20.87       56.92       
C           71.91       21.61       58.0        
S           70.57       20.87       55.95       
H           70.2        22.89       58.83       
H           72.66       21.88       58.71       
C           70.56       22.09       58.14       
C           69.64       21.62       57.22       
C           76.91       20.7        56.19       
C           75.64       20.35       55.76       
N           76.72       21.56       57.33       
C           75.33       21.6        57.67       
C           74.9        19.54       54.79       
O           75.27       18.9        53.82       
O           74.86       22.19       58.63       
C           72.62       19.06       54.23       
C           77.4        22.85       57.5        
H           77.00174    23.53791    56.75416    
H           78.46       22.68       57.36       
H           77.16       23.18       58.55       
H           71.68       19.57       54.14       
H           72.44962    18.02349    54.52107    
H           73.09       19.11       53.23       
N           73.52       19.7        55.17       
C           74.59       20.89       56.63       
C           73.31       20.5        56.26       
C           80.44       19.13       55.59       
C           79.66       18.93       54.53       
S           79.64       20.07       56.83       
H           77.61       19.59       53.9        
H           79.95       18.24       53.68       
C           78.4        19.64       54.64       
C           78.23       20.33       55.78       
C           84.66       17.98       56.58       
C           84.14       17.74       55.25       
C           83.77       18.54       57.43       
N           82.53       17.62       53.66       
N           83.7        17.11       53.27       
N           84.68       17.21       54.18       
C           83.76       16.35       52.05       
H           84.07       18.63       58.43       
H           81.79       19.26       57.95       
H           82.76011    16.15002    51.66486    
H           84.37       16.83       51.26       
H           84.18331    15.37638    52.29693    
C           82.43       19.0        57.05       
C           82.72       18.04       54.93       
C           81.87       18.72       55.8        
C           88.44       16.71       57.58       
C           87.81       17.35       58.64       
S           87.29       16.74       56.29       
H           85.94       18.36       59.1        
H           88.36       17.57       59.51       
C           86.49       17.88       58.32       
C           85.96       17.57       57.09       
C           92.5        14.93       59.54       
C           91.79       15.17       58.39       
N           91.63       15.06       60.56       
C           90.32       15.61       60.19       
C           91.85       15.16       56.93       
O           92.77       14.84       56.21       
O           89.56       16.21       61.03       
C           90.44       15.93       55.17       
C           91.68       14.62       61.93       
H           90.87618    13.90005    62.08377    
H           91.59       15.47       62.55       
H           92.61       14.1        62.12       
H           89.76       16.72       54.82       
H           90.14176    14.99367    54.69837    
H           91.36       16.25       54.75       
N           90.61       15.82       56.6        
C           90.45       15.67       58.73       
C           89.74       16.02       57.58       
C           96.29       14.02       60.45       
C           96.06       13.87       59.11       
S           94.81       14.78       61.15       
H           94.3        13.97       57.69       
H           96.76       13.37       58.47       
C           94.73       14.15       58.72       
C           93.9        14.56       59.7        
C           99.93       13.5        62.98       
C           98.73       13.79       63.53       
C           99.87       13.39       61.58       
N           96.51       14.24       63.65       
N           97.07       14.38       64.81       
N           98.38       14.05       64.85       
C           96.55       15.31       65.68       
H           100.82      13.29       61.08       
H           98.97       13.53       59.67       
H           95.46211    15.24384    65.6653     
H           96.88       15.03       66.67       
H           96.89692    16.32184    65.4704     
C           98.74       13.55       60.77       
C           97.49       13.92       62.74       
C           97.46       13.75       61.32       
C           103.63      13.58       64.37       
C           102.83      13.62       65.43       
S           102.7       13.57       62.96       
H           100.71      13.32       65.85       
H           103.16      13.72       66.41       
C           101.43      13.43       65.1        
C           101.17      13.43       63.76       
C           107.97      15.05       66.02       
C           107.24      14.4        65.08       
N           107.11      15.14       67.11       
C           105.73      14.9        66.74       
C           107.35      13.92       63.72       
O           108.4       13.85       63.02       
O           104.75      15.13       67.49       
C           105.87      12.52       62.38       
C           107.4       15.32       68.55       
H           107.76719   14.35333    68.8947     
H           108.07      16.13       68.88       
H           106.45      15.63       69.03       
H           105.32      12.74       61.47       
H           105.44303   11.57506    62.71598    
H           106.9       12.4        62.06       
N           105.98      13.54       63.38       
C           105.88      14.36       65.44       
C           105.09      13.86       64.38       
C           111.68      16.37       66.12       
C           111.54      15.36       65.22       
S           110.19      16.58       66.93       
H           110.1       13.99       64.48       
H           112.29      15.17       64.51       
C           110.25      14.82       65.15       
C           109.39      15.29       66.07       
C           114.66      19.6        66.74       
C           114.11      18.87       67.85       
C           114.36      19.05       65.53       
N           112.92      17.23       68.85       
N           113.58      18.06       69.72       
N           114.29      19.0        69.21       
C           113.67      17.78       71.21       
H           114.77      19.46       64.6        
H           113.13      17.83       64.3        
H           113.04967   16.93911    71.52016    
H           114.66      17.48       71.45       
H           113.401     18.65779    71.79755    
C           113.42      18.03       65.33       
C           113.22      17.72       67.67       
C           112.8       17.28       66.38       
C           116.18      23.16       67.63       
C           116.6       22.85       66.39       
S           115.56      21.71       68.35       
H           116.26      21.24       64.94       
H           117.12      23.52       65.71       
C           116.12      21.58       65.97       
C           115.38      20.91       66.87       
C           118.84      26.95       69.04       
C           117.62      26.24       69.12       
N           119.36      26.52       67.89       
C           118.7       25.37       67.3        
C           116.33      26.13       69.82       
O           115.76      26.76       70.67       
O           119.05      24.86       66.32       
C           114.68      24.19       70.17       
C           120.57      27.11       67.22       
H           121.40208   26.4119     67.31167    
H           120.87      28.07       67.63       
H           120.45      27.19       66.12       
H           115.03      23.24       70.6        
H           113.66091   24.28706    69.79564    
H           114.68      24.79       71.06       
N           115.75      24.86       69.38       
C           117.54      25.2        68.15       
C           116.49      24.38       68.36       
C           120.68      29.3        71.68       
C           119.32      29.27       71.99       
S           121.01      28.46       70.19       
H           117.54      28.08       71.28       
H           118.91      29.69       72.89       
C           118.63      28.31       71.16       
C           119.35      27.91       70.04       
C           124.25      30.72       73.84       
C           123.16      30.27       74.48       
C           124.22      30.4        72.44       
N           121.01      29.66       74.74       
N           121.63      29.87       75.88       
N           122.83      30.33       75.8        
C           121.01      29.64       77.14       
H           125.12      30.6        71.93       
H           123.14      29.85       70.7        
H           120.19772   28.94575    76.92478    
H           121.75      29.31       77.84       
H           120.56621   30.56337    77.51221    
C           123.04      29.93       71.78       
C           122.01      29.79       73.82       
C           121.88      29.7        72.4        
C           127.66      32.4        75.07       
C           127.18      31.64       76.09       
S           126.68      32.26       73.66       
H           125.5       30.29       76.39       
H           127.66      31.63       77.09       
C           125.97      30.96       75.76       
C           125.52      31.2        74.49       
C           131.86      33.86       77.13       
C           131.04      33.76       76.04       
N           131.02      33.57       78.21       
C           129.7       33.14       77.86       
C           131.06      33.89       74.64       
O           131.92      34.24       73.87       
O           128.86      32.94       78.65       
C           129.23      34.26       72.97       
C           131.19      33.98       79.62       
H           131.43341   33.08511    80.19273    
H           130.27      34.4        80.0        
H           132.04      34.68       79.67       
H           128.22      34.3        72.8        
H           129.63226   33.76436    72.08647    
H           129.52      35.3        73.0        
N           129.69      33.68       74.24       
C           129.72      33.23       76.4        
C           128.94      33.14       75.28       
C           135.61      34.83       77.62       
C           135.14      35.63       76.59       
S           134.34      33.78       78.15       
H           133.17      35.84       75.46       
H           135.74      36.33       76.02       
C           133.73      35.38       76.33       
C           133.12      34.55       77.19       
C           139.73      34.52       79.24       
C           138.62      33.71       79.71       
C           139.32      35.31       78.19       
N           136.55      33.04       79.99       
N           137.34      32.34       80.77       
N           138.62      32.69       80.67       
C           136.83      31.26       81.49       
H           140.09      35.87       77.77       
H           137.9       36.04       76.78       
H           135.74516   31.274      81.38502    
H           137.26      30.3        81.12       
H           137.15745   31.33504    82.52694    
C           138.01      35.41       77.69       
C           137.32      33.8        79.18       
C           136.96      34.73       78.17       
C           143.6       33.78       79.68       
C           143.35      35.07       80.1        
S           142.04      33.03       79.57       
H           141.75      36.49       80.07       
H           144.19      35.82       80.21       
C           141.97      35.46       80.03       
C           141.08      34.51       79.75       
C           148.55      33.64       79.3        
C           147.31      33.04       79.27       
N           148.3       35.02       79.37       
C           146.89      35.19       79.67       
C           146.79      31.74       79.08       
O           147.26      30.62       78.85       
O           146.41      36.3        79.87       
C           144.4       30.85       78.93       
C           148.91      36.09       78.51       
H           148.29748   36.11816    77.60882    
H           149.96      35.91       78.27       
H           148.93      37.05       79.0        
H           143.59      31.27       78.38       
H           144.04863   30.32654    79.81917    
H           144.98      30.11       78.3        
N           145.33      31.88       79.28       
C           146.21      33.89       79.52       
C           145.0       33.28       79.57       
C           151.49      31.57       77.74       
C           152.05      32.41       78.64       
S           149.81      31.76       77.61       
H           151.39      34.03       79.99       
H           153.08      32.46       78.86       
C           151.07      33.26       79.22       
C           149.76      33.0        78.85       
C           153.15      28.17       75.38       
C           154.01      28.9        76.23       
C           151.85      28.64       75.29       
N           154.4       30.38       77.86       
N           155.48      29.66       77.54       
N           155.22      28.73       76.63       
C           156.72      29.9        78.2        
H           151.18      28.22       74.62       
H           150.24      29.83       76.01       
H           156.65549   30.82471    78.77346    
H           157.01      29.06       78.85       
H           157.49179   30.07151    77.44965    
C           151.33      29.71       76.03       
C           153.46      29.99       77.02       
C           152.09      30.53       76.89       
C           153.25      24.61       73.76       
C           154.57      25.04       74.01       
S           152.25      25.88       74.36       
H           155.66      26.79       74.8        
H           155.36      24.38       73.7        
C           154.74      26.33       74.5        
C           153.57      26.98       74.65       
C           153.61      20.62       71.14       
C           152.88      21.56       71.82       
N           154.94      21.12       71.09       
C           155.1       22.2        72.1        
C           151.51      21.8        72.19       
O           150.45      21.32       71.99       
O           156.22      22.72       72.32       
C           150.43      23.79       73.01       
C           155.9       21.17       70.0        
H           155.62202   21.8899     69.23021    
H           156.78      21.55       70.43       
H           156.17      20.24       69.56       
H           150.66      24.77       72.64       
H           149.9595    23.77596    73.99313    
H           149.67      23.47       72.37       
N           151.6       22.99       72.93       
C           153.71      22.55       72.43       
C           152.87      23.45       73.06       
C           151.69      17.68       69.39       
C           153.05      17.56       69.1        
S           151.42      19.06       70.4        
H           154.93      18.58       69.74       
H           153.38      16.84       68.37       
C           153.83      18.52       69.84       
C           153.11      19.49       70.41       
C           148.09      15.34       68.89       
C           149.39      14.78       68.87       
C           148.06      16.73       68.89       
N           151.67      14.79       69.1        
N           151.12      13.61       68.79       
N           149.82      13.5        68.82       
C           151.94      12.58       68.14       
H           147.11      17.19       68.72       
H           149.31      18.5        68.85       
H           152.95026   12.88926    67.87197    
H           152.06      11.68       68.77       
H           151.38093   12.31518    67.24255    
C           149.32      17.49       68.98       
C           150.56      15.53       69.04       
C           150.54      16.89       69.16       
C           144.55      13.79       68.21       
C           145.44      12.76       68.55       
S           145.32      15.35       68.39       
H           147.62      12.63       68.89       
H           145.22      11.66       68.45       
C           146.76      13.22       68.77       
C           146.86      14.57       68.73       
C           140.29      11.62       68.04       
C           141.06      12.73       67.88       
N           141.14      10.76       68.73       
C           142.51      11.21       68.81       
C           140.99      14.13       67.5        
O           140.11      14.84       67.02       
O           143.35      10.46       69.23       
C           142.38      16.08       67.35       
C           140.83      9.57        69.46       
H           140.29372   9.85263     70.36588    
H           140.19      8.81        68.88       
H           141.72      8.99        69.53       
H           143.34      16.45       67.06       
H           142.04816   16.68013    68.19725    
H           141.78      16.24       66.47       
N           142.29      14.65       67.59       
C           142.42      12.55       68.25       
C           143.18      13.7        67.99       
C           136.62      10.46       67.12       
C           136.83      11.7        66.61       
S           138.08      9.86        67.83       
H           138.49      13.14       66.45       
H           136.04      12.28       66.14       
C           138.17      12.15       66.78       
C           138.94      11.33       67.54       
C           132.7       8.27        67.42       
C           133.92      7.76        68.0        
C           132.91      9.27        66.56       
N           136.02      7.8         68.77       
N           135.41      6.73        69.22       
N           134.17      6.62        68.77       
C           136.13      5.54        69.41       
H           131.95      9.64        66.1        
H           134.26      10.76       65.81       
H           136.58448   5.51287     70.40036    
H           135.44      4.72        69.4        
H           136.86007   5.46424     68.60417    
C           134.23      9.84        66.38       
C           135.18      8.39        67.87       
C           135.35      9.55        67.07       
C           129.41      6.96        69.12       
C           129.06      7.65        68.0        
S           131.11      7.19        69.41       
H           130.04      8.68        66.23       
H           128.04      7.73        67.63       
C           130.15      8.1         67.26       
C           131.36      7.81        67.81       
C           125.47      6.71        71.84       
C           126.74      6.28        71.6        
N           125.22      7.8         71.03       
C           126.29      7.91        70.01       
C           127.71      5.24        71.94       
O           127.73      4.27        72.62       
O           126.31      8.7         69.06       
C           129.91      4.57        71.09       
C           124.46      8.96        71.4        
H           125.12135   9.81758     71.52355    
H           124.15      8.83        72.42       
H           123.55      9.14        70.78       
H           130.9       5.03        70.9        
H           129.74066   3.71627     70.43383    
H           129.96      4.24        72.18       
N           128.77      5.48        70.98       
C           127.27      6.93        70.45       
C           128.57      6.53        70.18       
C           122.6       5.75        74.35       
C           123.71      5.07        74.66       
S           122.86      6.64        72.91       
H           125.79      5.03        74.07       
H           123.73      4.33        75.51       
C           124.84      5.43        73.88       
C           124.56      6.34        72.87       
C           118.65      5.64        76.41       
C           118.95      6.64        75.44       
C           119.64      4.66        76.57       
N           120.23      7.76        74.05       
N           118.98      8.31        74.23       
N           118.17      7.68        75.04       
C           118.61      9.63        73.69       
H           119.54      3.84        77.29       
H           121.65      4.0         76.08       
H           119.33721   9.90805     72.92714    
H           117.65      9.58        73.2        
H           118.64597   10.37101    74.48857    
C           120.9       4.7         75.89       
C           120.21      6.65        74.74       
C           121.26      5.73        74.99       
C           115.81      5.3         79.18       
C           115.33      6.09        78.12       
S           117.36      4.67        78.7        
H           116.13      7.09        76.3        
H           114.34      6.47        78.17       
C           116.28      6.36        77.13       
C           117.46      5.58        77.22       
C           111.58      4.05        81.0        
C           112.95      4.2         81.19       
N           111.37      4.18        79.6        
C           112.55      4.7         78.97       
C           114.02      3.84        82.11       
O           114.02      3.19        83.13       
O           112.6       4.89        77.75       
C           116.49      4.03        82.08       
C           110.44      3.49        78.86       
H           110.86914   2.73725     78.19871    
H           109.96      4.21        78.2        
H           109.66      2.98        79.49       
H           117.08      4.96        82.23       
H           116.94655   3.06774     81.84822    
H           116.2       3.96        83.1        
N           115.23      4.22        81.42       
C           113.59      4.61        79.97       
C           114.95      4.69        80.16       
C           108.52      3.65        83.34       
C           109.67      3.5         84.1        
S           108.83      3.88        81.65       
H           111.85      3.76        83.82       
H           109.73      3.5         85.16       
C           110.83      3.67        83.34       
C           110.56      3.78        81.97       
C           104.56      3.98        85.06       
C           104.74      3.62        83.72       
C           105.71      4.22        85.75       
N           105.76      2.99        81.89       
N           104.48      3.02        81.74       
N           103.79      3.46        82.73       
C           103.93      2.27        80.56       
H           105.66      4.72        86.79       
H           107.82      4.39        85.8        
H           103.4844    3.03183     79.92035    
H           103.09      1.63        80.93       
H           104.70849   1.6443      80.12347    
C           107.0       4.08        85.19       
C           106.02      3.42        83.12       
C           107.12      3.67        83.9        
H           68.6        21.53       57.34       
H           103.76      3.38        85.58       
