472

C           45.15       22.79       0.53        
C           43.89       22.6        1.02        
S           46.28       21.93       1.56        
H           42.96       21.66       2.83        
H           43.03       23.01       0.53        
C           43.86       21.88       2.3         
C           45.06       21.42       2.72        
C           44.43       24.55       -3.9        
C           45.23       24.4        -2.83       
N           43.15       24.28       -3.43       
C           43.15       23.77       -2.09       
C           46.57       24.68       -2.36       
O           47.53       25.2        -2.84       
O           42.2        23.52       -1.44       
C           47.81       24.14       -0.27       
C           41.92       24.48       -4.14       
H           41.52142    23.53852    -4.51796    
H           41.96       25.23       -4.94       
H           41.16       24.87       -3.49       
H           48.03       23.15       0.16        
H           47.75941    24.92777    0.48164     
H           48.57       24.42       -0.99       
N           46.61       24.06       -1.06       
C           44.54       23.79       -1.72       
C           45.41       23.45       -0.74       
C           45.24       25.55       -7.67       
C           46.37       25.05       -7.09       
S           43.86       25.46       -6.61       
H           46.83       24.19       -5.09       
H           47.31       25.02       -7.67       
C           46.12       24.64       -5.75       
C           44.83       24.8        -5.29       
C           45.07       27.25       -11.77      
C           43.87       27.03       -11.01      
C           46.18       26.9        -11.08      
N           42.51       26.44       -9.31       
N           41.85       26.92       -10.31      
N           42.6        27.26       -11.31      
C           40.34       26.9        -10.52      
H           47.15       26.98       -11.6       
H           47.16       26.2        -9.34       
H           39.79631    26.58226    -9.63032    
H           40.02       27.84       -10.88      
H           40.12703    26.36048    -11.44286   
C           46.16       26.39       -9.72       
C           43.82       26.53       -9.65       
C           45.05       26.2        -8.97       
C           46.37       28.29       -15.42      
C           45.11       28.8        -15.25      
S           46.75       27.36       -14.01      
H           43.44       28.55       -13.77      
H           44.57       29.43       -16.02      
C           44.46       28.36       -14.05      
C           45.24       27.74       -13.16      
C           50.52       28.64       -17.53      
C           49.15       28.57       -17.68      
N           50.77       28.51       -16.19      
C           49.59       28.23       -15.43      
C           48.06       28.45       -18.7       
O           48.12       28.5        -19.89      
O           49.64       28.27       -14.23      
C           45.64       27.98       -18.66      
C           52.1        28.44       -15.61      
H           52.31531    27.41207    -15.31829   
H           52.16       29.32       -14.97      
H           52.77       28.72       -16.36      
H           44.83       28.65       -18.35      
H           45.27527    26.97334    -18.45575   
H           45.88       28.25       -19.72      
N           46.87       28.34       -17.92      
C           48.55       28.29       -16.44      
C           47.2        28.35       -16.6       
C           52.72       28.68       -20.76      
C           53.2        29.57       -19.84      
S           51.26       28.0        -20.08      
H           52.77       30.24       -17.79      
H           54.09       30.14       -20.06      
C           52.54       29.63       -18.61      
C           51.4        28.91       -18.58      
C           54.62       27.74       -24.66      
C           53.34       27.37       -24.3       
C           55.29       28.32       -23.57      
N           51.44       27.18       -23.22      
N           51.36       26.63       -24.41      
N           52.47       26.76       -25.15      
C           50.09       26.05       -24.88      
H           56.32       28.64       -23.6       
H           55.3        28.95       -21.49      
H           49.3737     26.26559    -24.0872    
H           49.84       26.56       -25.84      
H           50.18373    24.97568    -25.03862   
C           54.69       28.47       -22.27      
C           52.68       27.58       -23.06      
C           53.32       28.26       -22.01      
C           55.64       27.78       -28.62      
C           56.75       27.54       -27.81      
S           54.23       27.86       -27.54      
H           57.03       27.46       -25.6       
H           57.76       27.4        -28.22      
C           56.41       27.47       -26.41      
C           55.1        27.54       -26.11      
C           56.57       26.0        -33.0       
C           55.64       26.66       -32.24      
N           57.56       25.58       -32.22      
C           57.43       26.11       -30.93      
C           54.36       27.37       -32.15      
O           53.45       27.62       -32.93      
O           58.19       25.88       -29.98      
C           53.92       29.29       -30.85      
C           58.58       24.57       -32.43      
H           59.52308    25.07345    -32.64272   
H           58.61       23.92       -31.59      
H           58.36       23.93       -33.3       
H           54.75       29.78       -30.52      
H           53.00887    29.51596    -30.29603   
H           53.97       29.59       -31.89      
N           54.32       27.91       -30.84      
C           56.2        26.83       -30.94      
C           55.37       27.51       -30.08      
C           56.21       24.71       -36.74      
C           55.02       25.11       -36.28      
S           57.44       24.98       -35.59      
H           54.18       25.71       -34.44      
H           54.1        24.89       -36.73      
C           55.08       25.59       -34.99      
C           56.3        25.52       -34.39      
C           56.87       22.06       -40.28      
C           57.94       22.77       -39.68      
C           55.68       22.21       -39.63      
N           58.96       24.17       -38.37      
N           59.83       23.61       -39.24      
N           59.27       22.77       -40.08      
C           61.22       24.0        -39.45      
H           54.83       21.67       -39.84      
H           54.57       22.99       -38.02      
H           61.63873    24.60716    -38.64743   
H           61.79       23.05       -39.53      
H           61.32202    24.48824    -40.41918   
C           55.48       23.19       -38.59      
C           57.77       23.6        -38.54      
C           56.5        23.9        -37.93      
C           56.16       19.46       -43.22      
C           57.46       19.88       -43.27      
S           55.47       20.21       -41.8       
H           58.86       21.24       -42.18      
H           58.18       19.55       -44.02      
C           57.85       20.77       -42.25      
C           56.85       21.12       -41.4       
C           55.92       15.97       -46.64      
C           55.29       16.8        -45.67      
N           57.22       16.47       -46.74      
C           57.49       17.39       -45.66      
C           53.99       17.08       -45.02      
O           52.84       16.61       -45.09      
O           58.61       17.59       -45.31      
C           53.13       19.01       -43.8       
C           58.22       16.24       -47.73      
H           59.00637    15.62677    -47.28992   
H           58.61       17.2        -48.08      
H           57.82       15.67       -48.56      
H           53.49       19.98       -43.71      
H           52.56105    18.78953    -42.89679   
H           52.54       18.99       -44.75      
N           54.27       18.11       -44.12      
C           56.2        17.63       -45.04      
C           55.61       18.38       -44.04      
C           54.98       12.53       -47.89      
C           53.82       13.23       -47.69      
S           56.34       13.6        -47.84      
H           53.3        15.35       -47.17      
H           52.84       12.74       -47.59      
C           54.04       14.63       -47.42      
C           55.33       14.93       -47.41      
C           55.77       8.17        -47.68      
C           54.73       8.84        -46.9       
C           56.45       9.0         -48.5       
N           53.48       10.58       -46.01      
N           53.2        9.37        -45.48      
N           53.92       8.36        -45.92      
C           52.56       9.24        -44.21      
H           57.22       8.62        -49.16      
H           56.89       11.03       -49.12      
H           51.67677    9.87393     -44.28835   
H           52.33       8.23        -43.94      
H           53.24227    9.59948     -43.43969   
C           56.18       10.41       -48.55      
C           54.43       10.26       -46.91      
C           55.2        11.07       -47.79      
C           55.41       4.2         -47.67      
C           56.72       4.54        -47.82      
S           54.51       5.77        -47.53      
H           58.12       6.33        -48.04      
H           57.44       3.74        -47.95      
C           57.06       5.96        -47.85      
C           55.96       6.74        -47.61      
C           55.47       -0.49       -49.25      
C           54.78       0.57        -48.6       
N           56.76       0.05        -49.54      
C           56.84       1.43        -49.19      
C           53.49       0.94        -47.97      
O           52.43       0.35        -47.73      
O           57.75       2.16        -49.59      
C           52.58       2.98        -46.8       
C           58.02       -0.69       -49.81      
H           58.75881    -0.58545    -49.01543   
H           58.49       -0.23       -50.65      
H           57.85       -1.78       -50.0       
H           52.15       3.91        -47.2       
H           52.87988    3.0871      -45.75755   
H           51.69       2.36        -46.8       
N           53.61       2.39        -47.63      
C           55.59       1.77        -48.53      
C           54.88       2.88        -47.91      
C           52.97       -3.14       -50.53      
C           54.23       -3.67       -50.63      
S           53.19       -1.43       -50.23      
H           56.29       -3.24       -49.78      
H           54.47       -4.54       -51.04      
C           55.25       -2.89       -49.99      
C           54.79       -1.62       -49.72      
C           48.98       -4.37       -51.6       
C           50.13       -5.11       -51.99      
C           49.34       -3.22       -50.81      
N           52.27       -5.69       -52.31      
N           51.4        -6.58       -52.86      
N           50.12       -6.21       -52.73      
C           51.72       -7.84       -53.6       
H           48.54       -2.59       -50.45      
H           50.79       -2.17       -49.76      
H           52.79263    -8.00557    -53.49922   
H           51.15       -8.67       -53.21      
H           51.45441    -7.7754     -54.65517   
C           50.66       -2.93       -50.5       
C           51.5        -4.8        -51.7       
C           51.74       -3.64       -50.91      
C           45.28       -5.84       -52.3       
C           45.23       -4.46       -52.41      
S           46.94       -6.32       -52.12      
H           46.51       -2.77       -52.03      
H           44.26       -4.01       -52.6       
C           46.44       -3.86       -52.04      
C           47.56       -4.72       -51.92      
C           40.92       -7.14       -53.77      
C           42.09       -7.45       -53.11      
N           40.97       -5.81       -54.11      
C           42.24       -5.26       -53.78      
C           42.7        -8.49       -52.36      
O           42.26       -9.61       -52.14      
O           42.59       -4.13       -54.12      
C           44.92       -8.94       -51.35      
C           39.86       -4.82       -54.27      
H           39.86713    -4.07832    -53.47127   
H           38.92       -5.32       -54.19      
H           39.82       -4.36       -55.26      
H           45.66       -8.39       -50.86      
H           45.39828    -9.61816    -52.05671   
H           44.29       -9.42       -50.57      
N           43.96       -7.98       -51.97      
C           42.98       -6.35       -53.11      
C           44.19       -6.74       -52.53      
C           37.4        -8.83       -53.2       
C           37.51       -8.35       -54.5       
S           38.91       -8.63       -52.42      
H           39.19       -7.52       -55.76      
H           36.74       -8.49       -55.24      
C           38.83       -7.87       -54.78      
C           39.71       -7.85       -53.77      
C           34.02       -10.57      -50.89      
C           33.9        -10.3       -52.3       
C           35.26       -10.37      -50.35      
N           34.52       -9.66       -54.31      
N           33.28       -10.0       -54.24      
N           32.84       -10.48      -53.07      
C           32.37       -9.55       -55.3       
H           35.45       -10.56      -49.34      
H           37.28       -9.66       -50.63      
H           33.00168    -9.14993    -56.09311   
H           31.91       -10.42      -55.78      
H           31.67568    -8.77695    -54.97074   
C           36.31       -9.72       -51.11      
C           35.01       -9.7        -53.02      
C           36.28       -9.43       -52.49      
C           31.41       -13.12      -49.19      
C           31.93       -12.26      -48.2       
S           31.95       -12.5       -50.71      
H           33.54       -10.66      -48.11      
H           31.85       -12.46      -47.16      
C           32.8        -11.27      -48.72      
C           32.98       -11.28      -50.11      
C           29.28       -16.84      -46.85      
C           29.55       -16.18      -48.06      
N           29.8        -16.01      -45.89      
C           30.62       -14.95      -46.42      
C           29.38       -16.22      -49.5       
O           28.72       -17.0       -50.22      
O           31.2        -14.14      -45.7       
C           29.83       -14.79      -51.42      
C           29.32       -15.82      -44.52      
H           30.01116    -16.30237   -43.82884   
H           29.22       -14.75      -44.35      
H           28.29       -16.2       -44.4       
H           30.74       -14.52      -51.98      
H           29.01619    -14.09565   -51.62905   
H           29.62       -15.77      -51.8       
N           29.94       -15.0       -50.01      
C           30.38       -15.02      -47.83      
C           30.65       -14.33      -48.99      
C           26.45       -19.67      -46.68      
C           27.28       -19.76      -45.64      
S           27.07       -18.38      -47.66      
H           28.9        -18.68      -44.65      
H           27.2        -20.52      -44.88      
C           28.25       -18.71      -45.45      
C           28.37       -17.93      -46.63      
C           23.75       -22.48      -48.62      
C           23.37       -21.2       -48.3       
C           24.91       -22.82      -48.0       
N           23.63       -19.04      -47.63      
N           22.41       -19.35      -47.9       
N           22.17       -20.55      -48.41      
C           21.52       -18.19      -48.16      
H           25.26       -23.89      -48.05      
H           26.86       -22.29      -47.18      
H           21.49933    -17.61117   -47.23662   
H           21.91       -17.71      -49.01      
H           20.5393     -18.55604   -48.46388   
C           25.86       -21.89      -47.47      
C           24.28       -20.22      -47.74      
C           25.49       -20.59      -47.26      
C           21.2        -25.38      -49.31      
C           22.37       -25.66      -50.05      
S           21.28       -23.81      -48.62      
H           24.31       -24.61      -50.35      
H           22.52       -26.69      -50.57      
C           23.33       -24.62      -49.94      
C           22.87       -23.55      -49.19      
C           18.57       -29.14      -50.32      
C           18.82       -28.15      -49.35      
N           19.41       -29.02      -51.4       
C           20.18       -27.83      -51.27      
C           18.5        -27.66      -48.0       
O           17.72       -27.97      -47.1       
O           20.92       -27.39      -52.12      
C           19.27       -25.67      -46.75      
C           19.69       -29.83      -52.61      
H           19.11716    -29.38446   -53.42329   
H           20.76       -29.82      -52.86      
H           19.47       -30.9       -52.58      
H           19.2        -24.6       -46.86      
H           20.02925    -25.90862   -46.00522   
H           18.37       -26.03      -46.29      
N           19.36       -26.47      -47.92      
C           19.84       -27.35      -49.96      
C           20.07       -26.25      -49.16      
C           16.65       -32.69      -50.15      
C           17.09       -32.21      -48.86      
S           17.24       -31.51      -51.3       
H           17.87       -30.31      -47.92      
H           16.84       -32.75      -47.91      
C           17.57       -30.88      -48.86      
C           17.77       -30.34      -50.07      
C           15.8        -36.78      -51.71      
C           16.59       -36.54      -50.58      
C           15.43       -35.66      -52.38      
N           17.57       -35.39      -48.98      
N           17.93       -36.67      -48.97      
N           17.31       -37.4       -49.83      
C           18.84       -37.29      -48.04      
H           14.84       -35.79      -53.27      
H           15.4        -33.53      -52.53      
H           19.30245    -36.51925   -47.4234    
H           18.26       -37.9       -47.26      
H           19.56341    -37.82739   -48.65318   
C           15.74       -34.31      -51.9       
C           16.84       -35.23      -50.09      
C           16.36       -34.04      -50.69      
C           14.74       -40.2       -53.52      
C           15.25       -40.47      -52.27      
S           14.51       -38.51      -53.62      
H           16.03       -39.37      -50.53      
H           15.4        -41.5       -51.93      
C           15.58       -39.33      -51.49      
C           15.43       -38.14      -52.19      
C           12.37       -44.27      -54.51      
C           12.76       -43.03      -54.89      
N           12.77       -44.38      -53.17      
C           13.6        -43.32      -52.77      
C           12.9        -42.14      -56.03      
O           12.61       -42.24      -57.18      
O           14.24       -43.37      -51.73      
C           14.07       -40.05      -56.61      
C           12.11       -45.12      -52.07      
H           12.77578    -45.92896   -51.76932   
H           11.16       -45.57      -52.25      
H           11.96       -44.28      -51.34      
H           15.01       -39.57      -56.35      
H           13.26123    -39.34581   -56.80522   
H           14.35       -40.61      -57.53      
N           13.71       -41.04      -55.62      
C           13.56       -42.4       -53.89      
C           14.06       -41.17      -54.3       
C           9.61        -46.45      -56.43      
C           10.59       -47.19      -55.75      
S           10.09       -44.8       -56.18      
H           12.32       -47.01      -54.51      
H           10.65       -48.28      -55.82      
C           11.54       -46.52      -55.05      
C           11.51       -45.17      -55.24      
C           6.07        -48.04      -58.5       
C           6.43        -46.65      -58.56      
C           7.05        -48.84      -57.86      
N           7.6         -44.78      -58.3       
N           6.58        -44.52      -59.03      
N           5.76        -45.55      -59.14      
C           6.17        -43.14      -59.37      
H           6.93        -49.94      -57.81      
H           8.77        -48.97      -56.67      
H           7.04596     -42.49855   -59.27344   
H           5.77        -43.15      -60.36      
H           5.35766     -42.80029   -58.72751   
C           8.17        -48.27      -57.24      
C           7.6         -46.11      -57.92      
C           8.47        -46.93      -57.2       
C           2.98        -50.07      -59.87      
C           3.23        -49.06      -60.75      
S           4.15        -49.96      -58.54      
H           4.67        -47.25      -60.85      
H           2.54        -48.67      -61.46      
C           4.34        -48.18      -60.36      
C           4.98        -48.65      -59.27      
C           -0.84       -52.51      -61.7       
C           0.09        -52.27      -60.75      
N           -0.68       -51.49      -62.69      
C           0.48        -50.68      -62.28      
C           0.59        -52.9       -59.55      
O           0.34        -53.88      -58.94      
O           0.74        -49.73      -62.96      
C           1.65        -51.82      -57.62      
C           -1.83       -50.89      -63.35      
H           -2.10568    -49.93963   -62.89295   
H           -2.73       -51.46      -63.43      
H           -1.54       -50.7       -64.36      
H           1.75        -50.81      -57.29      
H           2.41382     -52.44619   -57.15896   
H           0.72        -52.21      -57.29      
N           1.56        -51.96      -59.04      
C           0.98        -51.17      -61.01      
C           1.9         -51.04      -59.99      
C           -3.45       -55.38      -62.4       
C           -2.99       -55.49      -61.13      
S           -2.68       -54.05      -63.21      
H           -1.75       -54.29      -59.81      
H           -3.26       -56.23      -60.45      
C           -2.14       -54.43      -60.77      
C           -1.87       -53.48      -61.74      
C           -6.7        -57.66      -64.38      
C           -6.17       -56.51      -65.0       
C           -6.2        -57.89      -63.08      
N           -4.97       -54.66      -65.17      
N           -5.86       -54.73      -66.12      
N           -6.6        -55.82      -66.11      
C           -5.81       -53.9       -67.31      
H           -6.59       -58.73      -62.54      
H           -4.58       -57.78      -61.63      
H           -4.88383    -53.33562   -67.41854   
H           -6.66       -53.24      -67.21      
H           -5.97595    -54.54305   -68.17432   
C           -5.01       -57.25      -62.54      
C           -5.07       -55.81      -64.41      
C           -4.46       -56.15      -63.15      
H           45.22       21.26       3.74        
H           -7.36       -58.41      -64.92      
