472

C           97.62       89.63       21.38       
C           96.7        90.02       22.35       
S           97.08       88.09       20.75       
H           94.78       89.38       23.15       
H           96.89       90.96       22.87       
C           95.56       89.21       22.49       
C           95.73       87.99       21.88       
C           101.36      90.69       18.64       
C           100.66      90.92       19.79       
N           100.69      89.7        17.97       
C           99.59       89.3        18.71       
C           100.69      91.8        20.91       
O           101.45      92.68       21.17       
O           98.77       88.47       18.25       
C           98.9        92.61       22.4        
C           101.04      88.84       16.8        
H           101.47538   87.89201    17.116      
H           101.79      89.35       16.15       
H           100.17      88.68       16.2        
H           98.56       92.19       23.3        
H           98.02044    93.10172    21.98446    
H           99.72       93.25       22.55       
N           99.42       91.55       21.49       
C           99.54       90.06       19.91       
C           98.84       90.36       20.99       
C           104.11      93.21       17.43       
C           104.5       91.94       17.11       
S           102.46      93.19       18.08       
H           103.76      89.95       17.43       
H           105.45      91.62       16.63       
C           103.57      90.99       17.58       
C           102.49      91.49       18.22       
C           106.64      96.8        17.36       
C           105.25      96.84       17.64       
C           107.05      95.54       17.08       
N           103.06      96.27       17.61       
N           103.22      97.59       17.92       
N           104.51      97.97       17.94       
C           102.14      98.61       17.9        
H           108.09      95.28       16.92       
H           106.51      93.53       16.53       
H           101.34433   98.16639    17.30149    
H           101.96      98.94       18.95       
H           102.4855    99.55829    17.48834    
C           106.1       94.47       16.89       
C           104.33      95.78       17.54       
C           104.8       94.47       17.28       
C           109.63      99.39       17.75       
C           108.41      99.96       18.19       
S           109.21      97.87       17.15       
H           106.31      99.39       18.47       
H           108.36      100.93      18.64       
C           107.3       99.12       18.11       
C           107.53      97.93       17.57       
C           112.92      102.85      18.34       
C           112.58      101.55      18.03       
N           111.71      103.53      18.26       
C           110.59      102.66      18.02       
C           113.2       100.29      17.75       
O           114.37      99.99       17.64       
O           109.44      103.03      18.0        
C           112.55      97.86       17.71       
C           111.52      104.94      18.28       
H           111.0792    105.29548   17.34864    
H           112.43      105.46      18.26       
H           110.93      105.27      19.2        
H           111.89      97.22       17.07       
H           112.47369   97.46456    18.72287    
H           113.6       97.8        17.31       
N           112.16      99.31       17.6        
C           111.2       101.35      17.83       
C           110.94      100.0       17.65       
C           116.29      104.74      19.02       
C           116.53      103.71      18.19       
S           114.61      104.7       19.52       
H           115.42      102.12      17.24       
H           117.59      103.39      17.97       
C           115.34      103.02      17.9        
C           114.18      103.45      18.43       
C           119.4       107.42      20.69       
C           118.08      107.88      20.28       
C           119.56      106.09      20.43       
N           115.97      107.66      19.52       
N           116.29      108.84      19.95       
N           117.51      109.08      20.32       
C           115.23      109.83      19.82       
H           120.49      105.57      20.78       
H           118.75      104.12      19.78       
H           114.3007    109.2681    19.91365    
H           115.36      110.51      20.69       
H           115.35421   110.38206   18.88839    
C           118.53      105.19      19.89       
C           117.13      106.96      19.8        
C           117.32      105.62      19.52       
C           122.47      109.22      22.5        
C           121.33      109.98      22.59       
S           122.04      107.79      21.55       
H           119.13      109.74      22.07       
H           121.32      110.95      22.93       
C           120.16      109.36      22.09       
C           120.37      108.23      21.41       
C           126.07      112.16      23.92       
C           125.61      110.86      23.57       
N           124.95      112.99      23.98       
C           123.75      112.34      23.65       
C           126.02      109.51      23.4        
O           127.12      108.98      23.36       
O           122.67      112.89      23.53       
C           124.92      107.37      23.21       
C           124.95      114.13      24.87       
H           125.13445   115.02491   24.27567    
H           124.03      114.34      25.39       
H           125.67      114.13      25.66       
H           124.42      106.8       22.42       
H           124.70689   106.94378   24.19031    
H           125.95      107.18      22.96       
N           124.79      108.82      23.11       
C           124.17      110.96      23.32       
C           123.79      109.68      22.85       
C           129.79      113.68      24.08       
C           129.81      112.52      23.38       
S           128.19      114.0       24.63       
H           128.24      110.93      22.85       
H           130.71      112.11      22.93       
C           128.51      111.86      23.37       
C           127.47      112.54      23.89       
C           132.98      116.59      25.03       
C           133.03      115.74      23.93       
C           131.88      116.39      25.82       
N           132.23      114.36      22.3        
N           133.41      114.89      21.97       
N           133.95      115.65      22.92       
C           134.02      114.88      20.64       
H           131.72      116.93      26.75       
H           130.01      115.63      26.18       
H           133.85508   113.91918   20.15242    
H           133.61      115.71      20.03       
H           135.08056   115.11648   20.72599    
C           130.84      115.58      25.49       
C           132.04      114.73      23.61       
C           130.88      114.64      24.43       
C           134.83      120.0       25.52       
C           135.75      119.12      25.05       
S           133.3       119.2       25.81       
H           135.78      117.0       24.46       
H           136.75      119.32      24.79       
C           135.29      117.82      24.91       
C           133.97      117.67      25.29       
C           137.1       124.27      25.41       
C           136.08      123.54      25.86       
N           137.99      123.4       24.86       
C           137.51      122.05      24.85       
C           134.78      123.64      26.49       
O           134.03      124.58      26.67       
O           138.18      121.12      24.44       
C           133.06      122.05      27.38       
C           139.36      123.55      24.54       
H           139.50527   123.41856   23.46775    
H           139.99      122.85      25.18       
H           139.7       124.53      24.72       
H           133.12      121.1       27.88       
H           132.12032   122.09405   26.8294     
H           133.0       122.83      28.23       
N           134.22      122.32      26.53       
C           136.19      122.13      25.44       
C           135.08      121.43      25.78       
C           136.78      128.18      25.93       
C           137.69      127.89      24.96       
S           136.27      126.68      26.55       
H           138.42      126.11      23.83       
H           138.13      128.74      24.43       
C           137.85      126.52      24.65       
C           137.18      125.7       25.47       
C           135.03      131.94      27.27       
C           135.98      131.91      26.19       
C           134.71      130.73      27.83       
N           137.37      130.94      24.73       
N           137.2       132.21      24.48       
N           136.28      132.85      25.24       
C           137.62      132.68      23.22       
H           134.08      130.69      28.69       
H           134.99      128.57      27.91       
H           138.65695   132.3972    23.03872    
H           136.87      132.36      22.46       
H           137.52938   133.76049   23.10847    
C           135.29      129.5       27.36       
C           136.56      130.71      25.76       
C           136.25      129.46      26.34       
C           133.33      135.06      28.88       
C           133.54      135.29      27.58       
S           133.86      133.46      29.28       
H           134.37      134.22      25.78       
H           133.33      136.29      27.24       
C           134.16      134.21      26.87       
C           134.29      133.14      27.61       
C           132.75      139.57      30.69       
C           132.4       138.23      30.79       
N           133.41      139.77      29.46       
C           133.62      138.48      28.88       
C           131.87      137.27      31.69       
O           131.27      137.26      32.76       
O           134.31      138.39      27.89       
C           131.98      134.78      31.94       
C           134.14      140.95      28.97       
H           135.20615   140.75809   29.09083    
H           133.96      141.89      29.52       
H           133.96      141.05      27.88       
H           132.83      134.12      31.8        
H           131.1289    134.18135   31.61543    
H           131.99      135.06      32.94       
N           132.14      135.98      31.03       
C           133.04      137.51      29.73       
C           132.9       136.11      29.84       
C           132.93      142.27      33.55       
C           131.83      141.49      33.71       
S           133.77      141.79      32.11       
H           130.75      139.92      32.6        
H           131.23      141.57      34.63       
C           131.62      140.52      32.64       
C           132.56      140.64      31.6        
C           135.12      145.25      36.06       
C           134.15      144.26      36.61       
C           135.17      145.14      34.69       
N           132.6       142.71      36.54       
N           132.88      143.07      37.85       
N           133.82      143.98      37.95       
C           132.41      142.18      38.95       
H           135.76      145.84      34.18       
H           134.68      144.26      32.81       
H           131.90089   141.32218   38.51063    
H           133.21      141.97      39.58       
H           131.69241   142.70384   39.58148    
C           134.47      144.19      33.91       
C           133.44      143.39      35.73       
C           133.56      143.3       34.37       
C           137.05      147.83      38.36       
C           137.67      147.73      37.15       
S           135.73      146.75      38.37       
H           137.51      146.66      35.23       
H           138.53      148.42      36.99       
C           137.13      146.74      36.23       
C           136.04      146.11      36.75       
C           140.32      150.25      40.84       
C           138.99      149.91      40.67       
N           140.96      149.8       39.74       
C           140.21      148.95      38.88       
C           137.69      149.97      41.27       
O           137.34      150.52      42.19       
O           140.71      148.4       37.86       
C           135.45      149.3       40.54       
C           142.15      150.44      39.21       
H           141.89011   150.98144   38.30038    
H           142.76      149.7       38.83       
H           142.63      151.03      39.95       
H           135.05      148.33      40.49       
H           135.0006    150.09007   39.93839    
H           135.36      149.61      41.63       
N           136.88      149.28      40.39       
C           138.86      148.98      39.53       
C           137.59      148.51      39.48       
C           142.08      152.38      43.7        
C           140.72      152.71      43.59       
S           142.39      151.12      42.62       
H           139.02      152.2       42.31       
H           140.13      153.3       44.33       
C           140.07      152.08      42.52       
C           140.84      151.2       41.84       
C           145.0       153.07      46.92       
C           143.75      153.68      46.99       
C           145.27      152.43      45.73       
N           141.61      153.95      46.37       
N           141.92      154.53      47.59       
N           143.22      154.39      48.0        
C           140.79      154.86      48.47       
H           146.17      151.91      45.73       
H           144.65      151.63      43.86       
H           139.9023    155.16537   47.91607    
H           140.6       153.95      49.12       
H           141.1384    155.67526   49.10409    
C           144.29      152.1       44.82       
C           142.75      153.39      45.94       
C           142.98      152.62      44.8        
C           147.79      152.33      49.56       
C           147.34      153.58      49.79       
S           147.2       151.9       47.96       
H           145.78      154.87      49.13       
H           147.59      153.99      50.73       
C           146.32      154.02      48.93       
C           146.06      153.11      47.92       
C           150.96      151.66      53.07       
C           150.14      151.12      52.1        
N           150.89      153.02      52.93       
C           149.89      153.37      51.99       
C           149.64      149.81      51.62       
O           149.81      148.61      51.85       
O           149.43      154.49      52.03       
C           148.14      149.19      49.7        
C           151.79      154.06      53.38       
H           151.4874    154.58198   54.28779    
H           152.76      153.55      53.7        
H           152.01      154.77      52.62       
H           148.3       149.33      48.69       
H           147.05862   149.20432   49.83607    
H           148.59      148.3       49.9        
N           148.89      150.22      50.46       
C           149.5       152.15      51.35       
C           148.77      151.56      50.36       
C           153.23      150.13      55.91       
C           152.99      149.15      54.95       
S           152.54      151.65      55.35       
H           151.56      148.84      53.3        
H           153.32      148.11      55.05       
C           151.99      149.54      54.0        
C           151.79      150.91      53.95       
C           155.14      149.25      59.75       
C           154.7       150.52      59.41       
C           154.95      148.32      58.74       
N           153.58      152.09      58.3        
N           154.04      152.53      59.43       
N           154.73      151.64      60.05       
C           153.45      153.7       60.12       
H           155.39      147.36      58.82       
H           154.08      147.72      56.89       
H           153.2471    154.46089   59.36636    
H           152.54      153.39      60.62       
H           154.05678   154.04979   60.95521    
C           154.25      148.59      57.53       
C           154.02      150.82      58.21       
C           153.87      149.85      57.13       
C           157.17      149.06      63.23       
C           157.06      147.86      62.65       
S           156.38      150.21      62.14       
H           156.32      146.9       60.81       
H           157.53      146.99      63.13       
C           156.41      147.81      61.38       
C           155.92      149.0       60.93       
C           159.05      152.04      66.39       
C           158.53      150.76      66.17       
N           159.13      152.67      65.15       
C           158.61      151.86      64.09       
C           158.1       149.5       66.85       
O           158.1       149.03      67.94       
O           158.68      152.18      62.96       
C           156.99      147.44      66.06       
C           160.2       153.6       64.83       
H           161.15303   153.1199    64.60787    
H           159.97      154.07      63.88       
H           160.2       154.49      65.48       
H           157.14      146.86      65.15       
H           155.95039   147.47465   66.38574    
H           157.7       146.98      66.74       
N           157.53      148.78      65.73       
C           158.16      150.67      64.78       
C           157.68      149.43      64.48       
C           159.99      154.04      69.75       
C           159.24      152.93      70.04       
S           160.06      154.17      67.99       
H           158.11      151.41      68.89       
H           158.94      152.75      71.09       
C           158.79      152.21      68.87       
C           159.25      152.69      67.63       
C           161.23      157.48      72.3        
C           161.92      157.14      71.11       
C           160.22      156.63      72.58       
N           162.41      156.05      69.19       
N           163.31      157.01      69.52       
N           162.96      157.8       70.51       
C           164.31      157.43      68.54       
H           159.57      156.81      73.46       
H           158.96      154.94      72.02       
H           164.44097   156.66484   67.77484    
H           164.03      158.38      68.06       
H           165.23057   157.65295   69.0794     
C           159.76      155.59      71.68       
C           161.55      156.02      70.2        
C           160.46      155.17      70.57       
C           161.4       160.41      74.91       
C           162.1       160.7       73.8        
S           160.69      158.89      74.67       
H           162.68      159.82      71.88       
H           162.7       161.6       73.8        
C           162.16      159.7       72.78       
C           161.42      158.66      73.08       
C           160.24      160.91      79.6        
C           160.83      161.56      78.47       
N           159.73      159.68      79.16       
C           160.06      159.36      77.85       
C           161.49      162.7       77.97       
O           161.8       163.8       78.46       
O           159.68      158.38      77.29       
C           162.14      163.48      75.69       
C           158.71      158.76      79.75       
H           159.10421   157.7604    79.93303    
H           157.91      158.64      79.01       
H           158.18      159.14      80.68       
H           161.68      163.28      74.8        
H           163.22877   163.46577   75.64019    
H           161.77      164.41      76.1        
N           161.7       162.41      76.56       
C           160.65      160.62      77.32       
C           161.2       161.18      76.21       
C           159.65      162.15      83.24       
C           160.1       163.2       82.53       
S           159.69      160.69      82.32       
H           160.7       163.63      80.52       
H           160.11      164.21      82.85       
C           160.44      162.87      81.2        
C           160.08      161.54      80.88       
C           158.38      162.37      87.52       
C           158.52      161.16      86.8        
C           158.82      163.44      86.71       
N           158.84      159.85      85.07       
N           158.66      159.16      86.16       
N           158.36      159.88      87.18       
C           158.37      157.72      86.03       
H           158.82      164.44      87.15       
H           159.47      164.32      84.88       
H           158.84804   157.28477   85.15241    
H           158.72      157.26      86.9        
H           157.28596   157.64307   85.94607    
C           159.24      163.38      85.36       
C           158.99      161.09      85.47       
C           159.38      162.19      84.64       
C           157.01      162.44      91.29       
C           157.42      163.67      90.91       
S           157.19      161.37      89.89       
H           158.23      164.64      89.17       
H           157.21      164.58      91.55       
C           157.95      163.72      89.65       
C           158.07      162.53      88.98       
C           153.72      163.39      94.84       
C           154.54      162.48      94.15       
N           153.8       164.58      94.1        
C           154.83      164.52      93.12       
C           154.98      161.11      94.07       
O           154.76      160.14      94.75       
O           155.22      165.52      92.51       
C           156.88      159.86      93.07       
C           152.76      165.58      93.91       
H           152.136     165.33649   93.0501     
H           153.23      166.57      93.84       
H           152.17      165.63      94.78       
H           157.84      160.18      92.77       
H           156.52931   159.03695   92.44734    
H           156.93      159.66      94.14       
N           155.94      161.01      93.01       
C           155.29      163.15      93.08       
C           156.03      162.27      92.38       
C           150.81      162.96      97.53       
C           151.13      161.76      97.03       
S           151.89      164.16      96.79       
H           152.76      160.98      95.67       
H           150.67      160.86      97.43       
C           152.25      161.83      96.14       
C           152.71      163.06      95.8        
C           147.72      164.13      100.56      
C           147.77      162.84      100.03      
C           148.7       165.0       100.02      
N           148.62      161.08      98.89       
N           147.7       160.76      99.76       
N           147.08      161.72      100.4       
C           147.12      159.42      99.62       
H           148.66      166.03      100.19      
H           150.3       165.41      98.71       
H           147.85586   158.69802   99.97405    
H           146.87      159.23      98.54       
H           146.15095   159.3345    100.11165   
C           149.71      164.63      99.06       
C           148.85      162.46      99.09       
C           149.75      163.39      98.5        
H           95.38       86.99       22.28       
H           147.46      164.24      101.57      
