472

C           2.41        73.54       38.11       
C           3.15        73.28       37.02       
S           2.61        72.24       39.22       
H           4.47        71.67       36.28       
H           3.16        73.93       36.13       
C           3.81        72.01       37.07       
C           3.43        71.21       38.06       
C           -0.14       76.52       40.93       
C           0.57        76.32       39.76       
N           -0.33       75.25       41.46       
C           0.53        74.28       40.78       
C           1.15        77.04       38.61       
O           1.05        78.21       38.33       
O           0.56        73.14       41.18       
C           2.86        76.54       36.82       
C           -1.61       74.74       42.03       
H           -2.20921    74.21212    41.28812    
H           -2.25       75.54       42.36       
H           -1.37       74.12       42.88       
H           2.67        75.97       35.85       
H           3.90102     76.41879    37.11947    
H           2.69        77.63       36.71       
N           2.0         76.09       37.89       
C           1.12        74.97       39.64       
C           1.86        74.84       38.51       
C           -2.14       79.89       41.63       
C           -1.84       79.21       42.78       
S           -1.2        79.02       40.39       
H           -0.94       77.28       43.39       
H           -2.35       79.55       43.66       
C           -1.16       77.98       42.64       
C           -0.79       77.72       41.35       
C           -5.1        83.02       40.72       
C           -4.07       82.66       39.84       
C           -4.93       82.4        41.91       
N           -2.22       81.52       39.11       
N           -2.67       82.4        38.28       
N           -3.63       83.27       38.72       
C           -2.01       82.6        36.99       
H           -5.66       82.63       42.68       
H           -3.94       81.02       43.24       
H           -1.49696    81.6692     36.74814    
H           -2.77       82.88       36.3        
H           -1.23042    83.35044    37.12114    
C           -3.92       81.48       42.22       
C           -3.07       81.63       40.11       
C           -2.97       81.02       41.36       
C           -8.06       85.41       39.23       
C           -8.28       85.08       40.59       
S           -6.6        84.5        38.75       
H           -7.25       84.25       42.25       
H           -9.06       85.46       41.2        
C           -7.26       84.38       41.24       
C           -6.22       83.92       40.43       
C           -12.5       86.77       38.1        
C           -11.2       86.74       37.76       
N           -12.71      85.89       39.19       
C           -11.38      85.33       39.68       
C           -10.21      87.25       36.82       
O           -10.29      88.01       35.89       
O           -11.23      84.62       40.69       
C           -7.74       87.48       36.96       
C           -13.87      84.99       39.39       
H           -13.65992   84.0193     38.94087    
H           -14.87      85.31       38.99       
H           -14.11      84.99       40.48       
H           -6.96       86.8        36.65       
H           -7.32701    88.14373    37.7196     
H           -7.87       87.92       35.95       
N           -8.95       86.79       37.35       
C           -10.46      85.95       38.71       
C           -9.13       85.96       38.41       
C           -15.61      88.92       36.98       
C           -14.55      89.34       36.25       
S           -15.09      87.73       38.16       
H           -12.37      88.8        36.09       
H           -14.68      90.17       35.58       
C           -13.38      88.55       36.51       
C           -13.5       87.62       37.52       
C           -19.81      90.49       36.79       
C           -19.46      89.39       37.65       
C           -18.76      90.92       36.02       
N           -18.15      87.7        38.42       
N           -19.34      87.72       38.96       
N           -20.25      88.6        38.5        
C           -19.93      86.6        39.67       
H           -18.92      91.81       35.33       
H           -16.71      90.84       35.4        
H           -19.23734   85.76583    39.78172    
H           -20.16      87.01       40.66       
H           -20.91612   86.32025    39.29933    
C           -17.43      90.38       36.08       
C           -18.17      88.82       37.71       
C           -17.06      89.32       36.89       
C           -23.21      92.39       36.36       
C           -23.49      91.09       36.58       
S           -21.54      92.7        36.32       
H           -22.26      89.15       36.94       
H           -24.45      90.72       36.37       
C           -22.3       90.28       36.81       
C           -21.16      91.04       36.69       
C           -25.04      96.72       35.47       
C           -25.28      95.39       35.72       
N           -23.73      96.94       35.42       
C           -23.0       95.73       35.75       
C           -26.32      94.4        35.9        
O           -27.51      94.38       35.87       
O           -21.81      95.6        35.64       
C           -26.39      92.36       37.16       
C           -22.92      98.14       35.31       
H           -22.55234   98.44278    36.29043    
H           -21.97      97.92       34.78       
H           -23.51      98.91       34.76       
H           -25.7       92.15       37.93       
H           -27.00498   91.61779    36.65105    
H           -27.03      93.1        37.58       
N           -25.62      93.18       36.2        
C           -24.02      94.69       35.93       
C           -24.24      93.34       36.08       
C           -27.68      99.7        34.88       
C           -28.25      98.45       34.63       
S           -26.02      99.47       35.25       
H           -27.68      96.34       34.65       
H           -29.32      98.42       34.45       
C           -27.36      97.37       34.81       
C           -26.06      97.69       35.11       
C           -29.43      103.55      36.21       
C           -28.09      103.49      35.67       
C           -30.16      102.34      36.18       
N           -26.3       102.44      34.68       
N           -26.07      103.66      34.92       
N           -27.05      104.38      35.54       
C           -24.7       104.23      34.81       
H           -31.09      102.31      36.67       
H           -30.09      100.15      35.76       
H           -24.30091   103.90482   33.84923    
H           -24.78      105.31      34.77       
H           -24.05246   103.96694   35.64641    
C           -29.54      101.14      35.71       
C           -27.56      102.26      35.16       
C           -28.28      101.01      35.15       
C           -31.51      106.36      37.91       
C           -30.29      106.86      37.8        
S           -31.67      104.84      37.11       
H           -28.4       106.35      36.96       
H           -29.99      107.84      38.1        
C           -29.38      105.96      37.23       
C           -29.96      104.76      36.83       
C           -33.78      110.08      39.93       
C           -33.88      108.75      39.54       
N           -32.53      110.51      39.78       
C           -31.75      109.57      39.06       
C           -34.75      107.57      39.4        
O           -35.93      107.38      39.66       
O           -30.6       109.84      38.75       
C           -34.07      105.2       39.29       
C           -31.75      111.51      40.51       
H           -31.36534   111.03442   41.4122     
H           -32.36      112.32      40.68       
H           -30.99      112.04      40.02       
H           -33.19      104.73      39.83       
H           -34.63166   104.58592   38.58605    
H           -34.7       105.35      40.1        
N           -33.84      106.56      38.86       
C           -32.58      108.37      39.01       
C           -32.58      107.07      38.56       
C           -36.39      112.4       42.01       
C           -37.08      111.36      41.44       
S           -34.71      112.22      41.63       
H           -36.64      109.59      40.12       
H           -38.17      111.21      41.58       
C           -36.24      110.45      40.69       
C           -34.91      110.87      40.54       
C           -37.44      115.49      44.97       
C           -36.32      115.55      44.13       
C           -38.23      114.47      44.62       
N           -34.8       114.95      42.56       
N           -34.67      116.24      43.02       
N           -35.41      116.52      44.11       
C           -33.5       117.02      42.5        
H           -39.13      114.3       45.17       
H           -38.64      112.69      43.59       
H           -33.10416   116.41942   41.68103    
H           -33.88      117.95      42.18       
H           -32.76903   117.21128   43.28562    
C           -37.94      113.46      43.69       
C           -35.93      114.57      43.19       
C           -36.75      113.46      42.95       
C           -38.8       117.79      48.0        
C           -37.88      118.4       47.26       
S           -38.94      116.16      47.36       
H           -36.64      118.06      45.45       
H           -37.66      119.45      47.47       
C           -37.41      117.7       46.11       
C           -37.92      116.48      45.94       
C           -42.15      119.03      51.2        
C           -40.78      118.93      50.85       
N           -42.79      118.37      50.15       
C           -41.88      117.93      49.15       
C           -39.5       119.24      51.35       
O           -39.03      119.58      52.48       
O           -42.22      117.43      48.08       
C           -37.23      118.53      50.53       
C           -44.18      118.07      49.87       
H           -44.50081   117.02916   49.91277    
H           -44.51      118.51      48.98       
H           -44.82      118.41      50.65       
H           -36.73      118.66      49.6        
H           -37.10157   117.54535   50.97952    
H           -36.94      119.19      51.36       
N           -38.64      118.82      50.26       
C           -40.58      118.32      49.61       
C           -39.29      118.38      49.16       
C           -42.97      121.6       54.11       
C           -44.12      120.92      53.77       
S           -41.7       121.08      53.02       
H           -44.83      119.48      52.33       
H           -45.05      121.13      54.21       
C           -43.96      120.04      52.65       
C           -42.66      119.87      52.25       
C           -41.73      124.27      57.44       
C           -43.09      124.14      57.07       
C           -40.87      123.6       56.55       
N           -44.88      123.27      55.93       
N           -45.22      124.23      56.78       
N           -44.24      124.75      57.55       
C           -46.54      124.81      56.64       
H           -39.77      123.62      56.75       
H           -40.48      122.38      54.88       
H           -47.2257    124.03047   56.30798    
H           -46.91      125.11      57.7        
H           -46.48437   125.62361   55.91679    
C           -41.29      122.82      55.45       
C           -43.5       123.29      55.97       
C           -42.63      122.57      55.15       
C           -41.06      126.23      60.81       
C           -39.87      125.93      60.23       
S           -42.3       125.51      59.84       
H           -39.12      124.91      58.44       
H           -38.92      126.19      60.75       
C           -39.93      125.18      59.05       
C           -41.19      124.99      58.63       
C           -40.14      127.84      65.18       
C           -41.0       127.73      64.11       
N           -39.03      127.12      64.78       
C           -39.01      126.67      63.4        
C           -42.33      128.09      63.77       
O           -43.06      128.85      64.3        
O           -38.04      126.01      62.89       
C           -43.55      128.14      61.62       
C           -37.77      127.26      65.44       
H           -37.18661   128.02396   64.92606    
H           -37.23      126.31      65.43       
H           -37.89      127.46      66.51       
H           -44.0       127.39      61.0        
H           -43.27734   129.05587   61.09565    
H           -44.28      128.3       62.39       
N           -42.44      127.58      62.37       
C           -40.44      126.94      63.07       
C           -41.32      126.79      62.04       
C           -40.73      129.67      68.61       
C           -41.29      130.46      67.65       
S           -39.92      128.35      67.88       
H           -41.8       130.29      65.52       
H           -41.97      131.38      67.73       
C           -41.23      129.89      66.31       
C           -40.36      128.79      66.23       
C           -41.04      130.52      72.84       
C           -40.62      131.46      71.9        
C           -41.3       129.23      72.36       
N           -40.01      132.22      69.87       
N           -40.02      133.18      70.77       
N           -40.46      132.81      71.97       
C           -39.34      134.45      70.51       
H           -41.74      128.47      72.99       
H           -41.56      128.02      70.62       
H           -39.37487   134.70108   69.44989    
H           -39.91      135.29      71.02       
H           -38.35285   134.40267   70.96977    
C           -41.13      128.96      70.96       
C           -40.5       131.13      70.55       
C           -40.73      129.88      70.02       
C           -42.12      130.76      76.61       
C           -42.14      132.04      76.05       
S           -41.66      129.63      75.34       
H           -41.79      133.05      74.12       
H           -42.54      132.91      76.56       
C           -41.78      132.11      74.67       
C           -41.55      130.9       74.16       
C           -41.73      128.2       80.74       
C           -42.27      129.29      80.06       
N           -40.72      127.74      79.93       
C           -40.76      128.4       78.63       
C           -43.3       130.35      80.15       
O           -44.08      130.83      80.94       
O           -39.91      128.26      77.75       
C           -44.74      131.15      78.22       
C           -39.73      126.74      80.13       
H           -39.83778   125.7987    79.59109    
H           -38.74      127.19      79.84       
H           -39.67      126.51      81.22       
H           -45.05      130.43      77.48       
H           -44.88636   132.18146   77.89941    
H           -45.46      131.03      79.0        
N           -43.43      130.85      78.8        
C           -41.83      129.35      78.7        
C           -42.41      130.39      77.98       
C           -42.82      126.39      84.03       
C           -43.45      127.57      83.97       
S           -41.59      126.25      82.8        
H           -43.58      129.27      82.57       
H           -44.22      127.81      84.69       
C           -43.04      128.32      82.82       
C           -42.06      127.74      82.05       
C           -43.15      123.36      87.16       
C           -44.13      124.43      87.05       
C           -42.24      123.37      86.14       
N           -45.03      126.38      86.33       
N           -45.62      125.93      87.46       
N           -45.07      124.8       87.96       
C           -46.65      126.66      88.11       
H           -41.44      122.63      86.13       
H           -41.36      124.23      84.35       
H           -47.21479   127.18993   87.343      
H           -47.22      125.92      88.64       
H           -46.20689   127.31774   88.85775    
C           -42.23      124.27      85.07       
C           -44.13      125.41      85.99       
C           -43.14      125.34      84.99       
C           -42.16      120.81      89.97       
C           -43.03      121.7       90.53       
S           -42.0       121.09      88.29       
H           -44.0       123.56      89.89       
H           -43.5       121.61      91.49       
C           -43.39      122.68      89.61       
C           -43.01      122.5       88.35       
C           -42.12      117.24      93.22       
C           -41.49      117.78      92.09       
N           -43.21      118.04      93.63       
C           -43.33      119.07      92.73       
C           -40.4       117.64      91.18       
O           -39.46      116.92      91.15       
O           -44.18      119.94      92.84       
C           -39.56      119.03      89.32       
C           -43.96      118.22      94.93       
H           -44.88638   117.65705   94.81598    
H           -43.38      117.78      95.7        
H           -44.2       119.22      95.24       
H           -39.48      120.03      88.89       
H           -39.71355   118.39487   88.44757    
H           -38.64      118.58      89.71       
N           -40.56      118.84      90.34       
C           -42.31      118.91      91.67       
C           -41.78      119.58      90.6        
C           -40.6       114.07      95.02       
C           -41.94      114.02      95.06       
S           -40.09      115.43      94.0        
H           -43.65      115.17      94.23       
H           -42.49      113.19      95.54       
C           -42.56      115.11      94.45       
C           -41.72      116.06      93.92       
C           -37.81      110.85      96.46       
C           -39.13      110.57      96.07       
C           -37.41      112.16      96.2        
N           -41.17      111.03      95.22       
N           -41.02      109.79      95.68       
N           -39.82      109.48      96.21       
C           -42.09      108.77      95.63       
H           -36.46      112.61      96.43       
H           -38.0       114.16      95.68       
H           -42.88683   109.0426    94.93801    
H           -41.66      107.84      95.37       
H           -42.48989   108.62267   96.63324    
C           -38.33      113.15      95.66       
C           -39.99      111.58      95.52       
C           -39.63      112.96      95.39       
C           -35.3       108.73      98.47       
C           -36.03      107.9       97.73       
S           -35.74      110.37      98.17       
H           -37.69      108.08      96.3        
H           -35.85      106.79      97.79       
C           -36.95      108.56      96.92       
C           -36.88      109.87      97.02       
C           -32.61      108.25      102.29      
C           -32.74      108.24      100.93      
N           -33.78      108.71      102.73      
C           -34.73      108.93      101.7       
C           -31.99      108.01      99.73       
O           -30.87      107.66      99.41       
O           -35.85      109.36      101.88      
C           -32.52      108.24      97.39       
C           -34.17      109.27      104.01      
H           -35.02214   108.74614   104.44305   
H           -34.4       110.3       103.86      
H           -33.35      109.39      104.7       
H           -33.25      108.83      96.88       
H           -32.44112   107.26478   96.90956    
H           -31.61      108.83      97.37       
N           -32.96      108.11      98.69       
C           -34.05      108.52      100.5       
C           -34.19      108.3       99.19       
C           -29.61      107.36      104.8       
C           -29.16      107.53      103.55      
S           -31.38      107.61      104.83      
H           -30.01      107.94      101.51      
H           -28.1       107.36      103.36      
C           -30.17      107.87      102.59      
C           -31.44      108.05      103.09      
C           -27.56      105.65      108.34      
C           -28.71      106.53      108.42      
C           -27.12      105.55      107.04      
N           -30.43      107.86      107.79      
N           -30.31      107.71      109.11      
N           -29.38      106.96      109.54      
C           -31.31      108.24      109.99      
H           -26.33      104.88      106.78      
H           -27.4       105.84      104.96      
H           -31.9931    108.88789   109.44071   
H           -31.93      107.44      110.39      
H           -30.77832   108.79966   110.75954   
C           -27.86      106.1       105.98      
C           -29.39      107.09      107.33      
C           -28.93      106.91      106.01      
C           -25.53      105.11      111.7       
C           -24.89      104.4       110.7       
S           -26.95      105.75      111.02      
H           -25.24      103.97      108.61      
H           -23.89      103.95      110.88      
C           -25.59      104.42      109.48      
C           -26.75      105.18      109.44      
C           -22.83      104.67      115.54      
C           -23.6       105.51      114.75      
N           -22.55      103.58      114.8       
C           -23.35      103.57      113.63      
C           -24.31      106.84      114.75      
O           -24.3       107.86      115.45      
O           -23.49      102.54      113.02      
C           -26.12      107.81      113.39      
C           -21.76      102.39      115.06      
H           -21.00874   102.2672    114.27985   
H           -22.36      101.49      115.04      
H           -21.27      102.39      116.04      
H           -27.1       107.43      113.21      
H           -25.8337    108.55018   112.64283   
H           -26.23      108.25      114.35      
N           -25.12      106.75      113.58      
C           -24.0       104.81      113.6       
C           -24.98      105.45      112.98      
C           -21.64      105.34      119.23      
C           -21.65      106.53      118.56      
S           -21.93      104.05      118.14      
H           -22.36      107.2       116.52      
H           -21.46      107.48      119.01      
C           -22.16      106.38      117.21      
C           -22.25      105.05      116.78      
C           -21.26      104.42      123.45      
C           -21.97      105.52      123.01      
C           -20.56      103.76      122.46      
N           -23.06      106.87      121.58      
N           -23.25      107.23      122.85      
N           -22.69      106.44      123.76      
C           -24.28      108.24      123.32      
H           -19.86      103.05      122.75      
H           -20.21      103.55      120.32      
H           -24.48349   108.89256   122.47097   
H           -23.88      108.67      124.18      
H           -25.17013   107.72429   123.68029   
C           -20.72      104.12      121.03      
C           -22.2       105.82      121.63      
C           -21.56      105.04      120.62      
H           3.28        70.12       37.98       
H           -21.14      104.31      124.58      
