472

C           88.14       59.86       59.93       
C           88.38       60.67       60.95       
S           89.0        60.49       58.5        
H           89.41       62.6        61.4        
H           88.06       60.44       61.98       
C           89.13       61.89       60.62       
C           89.5        61.93       59.29       
C           86.88       55.92       62.26       
C           86.81       56.62       61.13       
N           87.66       56.58       63.21       
C           87.93       57.9        62.7        
C           86.37       56.54       59.75       
O           85.62       55.84       59.13       
O           88.4        58.7        63.36       
C           86.39       58.03       57.82       
C           88.36       56.1        64.45       
H           87.91901    56.50484    65.3609     
H           89.33       56.51       64.3        
H           88.52       55.11       64.55       
H           87.11       58.53       57.15       
H           85.49004    58.64169    57.75672    
H           86.16       57.09       57.25       
N           86.82       57.77       59.19       
C           87.53       57.87       61.3        
C           87.61       58.55       60.1        
C           84.85       52.44       62.29       
C           85.27       52.74       63.58       
S           85.62       53.58       61.19       
H           86.11       54.51       64.63       
H           84.92       52.12       64.42       
C           85.93       54.01       63.67       
C           86.27       54.64       62.45       
C           82.08       49.39       60.55       
C           81.74       50.01       61.77       
C           83.24       49.74       59.96       
N           82.13       51.42       63.46       
N           81.04       50.74       63.66       
N           80.73       49.92       62.67       
C           80.25       51.13       64.82       
H           83.5        49.19       59.1        
H           85.18       50.84       60.03       
H           80.96795    51.58494    65.50241    
H           79.49       51.83       64.47       
H           79.84559    50.22895    65.28116    
C           84.14       50.73       60.5        
C           82.69       51.03       62.29       
C           83.91       51.44       61.68       
C           79.5        46.52       59.28       
C           80.35       46.72       58.27       
S           79.99       47.36       60.75       
H           82.2        47.81       58.01       
H           80.26       46.17       57.35       
C           81.4        47.66       58.68       
C           81.26       48.26       59.95       
C           76.48       43.11       57.5        
C           76.84       43.86       58.57       
N           77.34       43.34       56.47       
C           78.22       44.45       56.78       
C           76.76       43.99       60.03       
O           76.25       43.26       60.87       
O           78.92       45.0        55.89       
C           77.52       45.53       61.79       
C           77.75       42.4        55.48       
H           78.76062    42.11125    55.76875    
H           77.78       42.83       54.47       
H           77.18       41.49       55.54       
H           77.63       46.6        61.94       
H           78.26735    44.94481    62.32584    
H           76.51       45.24       62.16       
N           77.58       45.17       60.39       
C           77.93       44.77       58.21       
C           78.37       45.59       59.29       
C           73.27       41.06       56.53       
C           73.25       41.46       57.87       
S           74.81       41.51       55.95       
H           74.34       42.73       59.38       
H           72.52       41.0        58.5        
C           74.27       42.27       58.34       
C           75.25       42.38       57.39       
C           70.45       38.86       54.04       
C           70.08       39.18       55.35       
C           71.75       39.09       53.74       
N           70.35       40.15       57.38       
N           69.13       39.64       57.3        
N           68.87       39.12       56.06       
C           68.12       39.85       58.36       
H           72.18       38.62       52.84       
H           73.7        39.93       54.19       
H           68.56698    40.25441    59.26816    
H           67.26       40.5        58.16       
H           67.75243    38.83744    58.52645    
C           72.65       39.87       54.45       
C           71.01       39.94       56.18       
C           72.33       40.3        55.75       
C           68.77       36.77       51.18       
C           68.0        36.52       52.29       
S           70.14       37.76       51.64       
H           68.02       37.08       54.46       
H           67.12       35.84       52.31       
C           68.48       37.19       53.47       
C           69.62       37.94       53.23       
C           67.34       33.84       47.69       
C           68.13       34.88       48.0        
N           66.57       33.45       48.78       
C           67.04       34.17       49.95       
C           69.11       35.86       47.51       
O           69.61       36.02       46.4        
O           66.61       33.99       51.07       
C           69.91       38.09       48.32       
C           65.28       32.79       48.89       
H           64.49888    33.53462    48.7367     
H           65.24       31.88       48.28       
H           65.1        32.54       49.97       
H           70.77       38.25       49.01       
H           69.20876    38.92448    48.32       
H           70.41       37.98       47.37       
N           69.25       36.8        48.67       
C           67.87       35.22       49.39       
C           68.69       36.26       49.84       
C           66.68       32.08       44.15       
C           67.41       33.17       44.07       
S           66.5        31.81       45.86       
H           68.1        34.9        45.34       
H           67.73       33.43       43.1        
C           67.52       33.96       45.26       
C           67.12       33.32       46.33       
C           65.17       28.84       41.51       
C           65.68       30.06       41.03       
C           65.13       28.82       42.9        
N           66.84       32.02       41.1        
N           66.67       31.57       39.87       
N           65.94       30.54       39.73       
C           66.78       32.49       38.74       
H           64.81       27.92       43.49       
H           65.36       29.69       44.74       
H           67.83045    32.58418    38.46471    
H           66.3        32.06       37.89       
H           66.44817    33.48548    39.03496    
C           65.49       29.88       43.71       
C           66.25       31.03       41.84       
C           66.09       31.04       43.25       
C           64.36       26.02       38.88       
C           64.29       25.5        40.09       
S           64.82       27.66       39.02       
H           64.31       26.09       42.2        
H           63.95       24.5        40.33       
C           64.52       26.4        41.17       
C           64.88       27.64       40.71       
C           63.33       22.43       35.68       
C           63.72       23.76       35.91       
N           62.87       22.0        36.88       
C           63.16       22.83       38.01       
C           64.23       24.92       35.26       
O           64.44       25.14       34.14       
O           62.82       22.62       39.15       
C           65.1        27.12       35.93       
C           61.77       21.08       37.09       
H           60.8381     21.60641    37.2963     
H           61.93       20.24       37.69       
H           61.52       20.63       36.16       
H           65.87       27.38       36.62       
H           64.32033    27.85636    35.73508    
H           65.74       27.03       35.03       
N           64.53       25.87       36.35       
C           63.73       24.04       37.38       
C           64.13       25.36       37.64       
C           63.98       19.92       32.72       
C           63.84       21.16       32.24       
S           63.6        19.98       34.4        
H           63.71       23.3        32.98       
H           63.89       21.39       31.2        
C           63.6        22.2        33.2        
C           63.32       21.72       34.49       
C           65.08       16.47       30.13       
C           64.96       16.34       31.57       
C           64.86       17.79       29.74       
N           64.57       16.95       33.69       
N           64.69       15.63       33.54       
N           64.98       15.14       32.35       
C           64.22       14.84       34.62       
H           64.84       18.1        28.67       
H           64.48       19.72       30.13       
H           63.8302     15.45779    35.42901    
H           63.42       14.26       34.23       
H           64.96423    14.10314    34.92211    
C           64.53       18.82       30.61       
C           64.52       17.46       32.43       
C           64.28       18.76       31.93       
C           65.66       14.28       26.97       
C           66.11       13.57       28.1        
S           65.18       15.84       27.45       
H           66.35       13.95       30.13       
H           66.46       12.59       28.05       
C           66.04       14.28       29.26       
C           65.43       15.49       29.11       
C           65.73       11.19       23.38       
C           65.63       12.5        23.81       
N           66.22       10.35       24.41       
C           66.29       11.2        25.63       
C           65.3        13.8        23.36       
O           65.07       14.29       22.27       
O           66.7        10.72       26.66       
C           64.93       16.07       24.34       
C           66.66       8.95        24.45       
H           65.94025    8.36381     25.02135    
H           67.6        8.91        24.91       
H           66.84       8.58        23.44       
H           65.31       16.71       25.09       
H           63.84523    16.16798    24.29801    
H           65.38       16.43       23.42       
N           65.42       14.67       24.47       
C           65.93       12.56       25.19       
C           65.6        13.84       25.6        
C           64.88       10.66       19.52       
C           64.72       9.48        20.2        
S           65.65       11.73       20.61       
H           64.84       8.79        22.33       
H           64.22       8.64        19.77       
C           65.0        9.56        21.65       
C           65.36       10.8        22.04       
C           64.51       12.17       15.43       
C           63.77       11.02       15.9        
C           65.17       12.84       16.44       
N           63.39       9.27        17.13       
N           62.6        9.31        16.12       
N           62.88       10.18       15.33       
C           61.48       8.46        15.93       
H           65.6        13.82       16.37       
H           65.57       13.17       18.53       
H           61.57823    7.47019     16.37579    
H           60.61       8.95        16.2        
H           61.3429     8.34455     14.85484    
C           65.14       12.43       17.8        
C           64.04       10.45       17.16       
C           64.72       11.14       18.17       
C           65.13       13.97       12.04       
C           63.99       13.19       11.91       
S           65.79       13.62       13.6        
H           62.68       11.95       13.17       
H           63.5        12.97       10.97       
C           63.61       12.45       13.08       
C           64.42       12.69       14.13       
C           66.43       15.74       7.71        
C           66.62       15.59       9.05        
N           65.12       15.26       7.45        
C           64.58       14.66       8.65        
C           67.59       15.93       10.07       
O           68.69       16.45       10.03       
O           63.62       13.92       8.63        
C           67.88       15.6        12.4        
C           64.28       16.04       6.62        
H           63.62636    16.53386    7.339       
H           63.73       15.41       5.9         
H           64.76       16.73       5.99        
H           67.86       14.84       13.13       
H           67.63344    16.54395    12.88607    
H           68.91       15.62       12.07       
N           67.09       15.35       11.27       
C           65.55       14.91       9.7         
C           65.84       14.74       11.1        
C           68.71       16.83       4.65        
C           69.15       17.45       5.79        
S           67.14       16.08       5.02        
H           68.56       17.47       7.94        
H           70.0        18.12       5.73        
C           68.41       17.13       6.97        
C           67.3        16.35       6.71        
C           70.55       16.98       0.65        
C           69.27       16.38       0.85        
C           71.05       17.57       1.76        
N           67.62       15.45       2.07        
N           67.55       15.1        0.78        
N           68.44       15.7        0.01        
C           66.39       14.52       0.14        
H           71.99       18.21       1.58        
H           71.09       17.54       3.95        
H           65.66015    14.20025    0.88376     
H           65.98       15.34       -0.38       
H           66.77532    13.72028    -0.49251    
C           70.52       17.41       3.09        
C           68.76       16.18       2.17        
C           69.28       16.8        3.34        
C           71.69       17.52       -3.08       
C           72.78       17.25       -2.36       
S           70.3        17.56       -2.04       
H           73.28       16.64       -0.29       
H           73.75       17.24       -2.83       
C           72.54       17.02       -0.98       
C           71.24       17.18       -0.65       
C           73.38       17.36       -7.59       
C           72.37       17.51       -6.73       
N           74.49       17.06       -6.83       
C           74.24       17.31       -5.44       
C           70.92       17.68       -6.72       
O           70.07       17.8        -7.58       
O           75.12       17.09       -4.66       
C           69.11       17.84       -5.07       
C           75.81       16.77       -7.42       
H           76.37438    17.69617    -7.52854    
H           76.46       16.2        -6.82       
H           75.69       16.14       -8.31       
H           68.93       18.46       -4.22       
H           68.6177     16.88353    -4.89418    
H           68.66       18.38       -5.88       
N           70.56       17.71       -5.34       
C           72.79       17.43       -5.36       
C           71.69       17.6        -4.53       
C           73.12       15.89       -11.19      
C           73.55       17.19       -11.22      
S           72.64       15.46       -9.57       
H           74.13       18.69       -9.63       
H           73.96       17.64       -12.08      
C           73.68       17.77       -9.94       
C           73.09       17.03       -8.96       
C           73.38       12.95       -14.4       
C           72.77       12.56       -13.16      
C           73.67       14.28       -14.57      
N           72.1        12.89       -11.09      
N           72.16       11.63       -11.45      
N           72.65       11.33       -12.68      
C           72.35       10.71       -10.34      
H           74.14       14.66       -15.51      
H           73.53       16.3        -13.86      
H           72.01651    11.1854     -9.41757    
H           71.85       9.76        -10.48      
H           73.41532    10.56841    -10.15795   
C           73.38       15.24       -13.57      
C           72.61       13.58       -12.18      
C           73.02       14.92       -12.3       
C           75.68       10.51       -16.54      
C           74.83       11.17       -17.4       
S           75.2        11.0        -14.91      
H           73.14       12.65       -17.39      
H           74.86       10.98       -18.44      
C           73.91       12.07       -16.82      
C           73.94       12.03       -15.39      
C           79.62       9.62        -19.1       
C           78.89       9.49        -17.91      
N           78.77       10.18       -20.1       
C           77.49       10.46       -19.49      
C           79.09       9.05        -16.52      
O           80.03       8.62        -15.82      
O           76.64       11.1        -20.1       
C           77.7        9.21        -14.47      
C           78.96       10.24       -21.52      
H           78.30263    9.46953     -21.92291   
H           78.75       11.24       -21.92      
H           80.03       10.09       -21.89      
H           76.66       9.27        -14.11      
H           78.2776     9.93735     -13.89953   
H           78.05       8.19        -14.39      
N           77.84       9.43        -15.9       
C           77.53       9.97        -18.1       
C           76.93       9.96        -16.86      
C           82.62       7.1         -19.66      
C           82.85       8.28        -20.32      
S           81.18       7.29        -18.7       
H           81.83       10.24       -20.72      
H           83.76       8.43        -21.01      
C           81.84       9.28        -20.2       
C           80.81       8.9         -19.26      
C           84.1        3.07        -20.21      
C           84.6        4.1         -21.04      
C           83.3        3.52        -19.22      
N           84.71       6.27        -21.91      
N           85.46       5.42        -22.49      
N           85.55       4.15        -22.06      
C           86.42       5.85        -23.47      
H           83.02       2.79        -18.44      
H           82.23       4.91        -18.19      
H           86.19756    6.89046     -23.70679   
H           87.36       5.79        -22.95      
H           86.42       5.21577     -24.35648   
C           82.94       4.81        -18.99      
C           84.19       5.49        -20.89      
C           83.29       5.83        -19.81      
C           84.34       -0.6        -21.72      
C           84.02       -0.72       -20.43      
S           84.67       1.04        -22.13      
H           83.79       0.78        -18.7       
H           83.82       -1.67       -19.98      
C           84.04       0.58        -19.72      
C           84.3        1.61        -20.52      
C           85.41       -5.02       -23.38      
C           85.23       -3.66       -23.61      
N           85.11       -5.21       -21.98      
C           84.85       -3.96       -21.35      
C           85.38       -2.68       -24.64      
O           85.66       -2.68       -25.83      
O           84.54       -3.96       -20.2       
C           84.3        -0.45       -24.88      
C           84.8        -6.44       -21.27      
H           85.65643    -6.72776    -20.66022   
H           84.63       -7.24       -21.92      
H           83.99       -6.43       -20.63      
H           84.88       0.47        -24.85      
H           83.24793    -0.19951    -24.74402   
H           84.44       -0.71       -25.93      
N           84.86       -1.49       -24.03      
C           84.93       -2.96       -22.39      
C           84.69       -1.65       -22.67      
C           86.94       -7.91       -25.52      
C           87.1        -6.69       -26.2       
S           86.17       -7.62       -24.05      
H           86.85       -4.55       -25.85      
H           87.7        -6.61       -27.11      
C           86.66       -5.58       -25.48      
C           86.0        -5.91       -24.32      
C           88.49       -11.84      -26.62      
C           88.7        -10.69      -27.37      
C           87.84       -11.62      -25.54      
N           88.7        -8.51       -28.11      
N           89.36       -9.33       -28.87      
N           89.31       -10.58      -28.57      
C           89.7        -8.89       -30.26      
H           87.51       -12.43      -24.94      
H           86.73       -10.34      -24.18      
H           89.7368     -7.80072    -30.27472   
H           90.64       -9.34       -30.49      
H           88.93706    -9.26077    -30.94451   
C           87.29       -10.37      -25.16      
C           88.24       -9.36       -27.07      
C           87.47       -9.2        -25.92      
C           89.64       -15.2       -28.33      
C           89.52       -15.44      -26.98      
S           88.86       -13.69      -28.72      
H           89.14       -14.16      -25.18      
H           89.82       -16.33      -26.53      
C           89.14       -14.31      -26.25      
C           88.77       -13.2       -27.07      
C           91.92       -19.24      -29.68      
C           91.3        -18.08      -30.03      
N           91.93       -19.34      -28.29      
C           91.09       -18.27      -27.73      
C           91.01       -17.24      -31.14      
O           91.2        -17.36      -32.36      
O           90.83       -18.23      -26.52      
C           89.61       -15.25      -31.47      
C           93.0        -20.03      -27.49      
H           93.55049    -19.38657   -26.80367   
H           93.78       -20.24      -28.24      
H           92.7        -21.06      -27.28      
H           89.81       -14.24      -31.21      
H           88.54066    -15.45813   -31.50588   
H           90.01       -15.37      -32.51      
N           90.33       -16.13      -30.6       
C           90.82       -17.4       -28.84      
C           90.24       -16.22      -29.21      
C           93.78       -22.16      -31.58      
C           93.53       -21.12      -32.38      
S           93.08       -21.84      -30.07      
H           92.55       -19.13      -32.34      
H           93.98       -21.03      -33.34      
C           92.8        -20.04      -31.81      
C           92.59       -20.23      -30.51      
C           96.64       -25.43      -32.41      
C           96.56       -24.2       -33.04      
C           95.67       -25.5       -31.41      
N           95.92       -22.12      -33.69      
N           96.96       -22.56      -34.39      
N           97.5        -23.72      -33.93      
C           97.77       -21.6       -35.07      
H           95.6        -26.38      -30.73      
H           94.12       -24.61      -30.4       
H           97.83546    -20.65443   -34.53175   
H           97.32       -21.49      -36.11      
H           98.78913    -21.97939   -35.14439   
C           94.83       -24.42      -31.17      
C           95.67       -23.12      -32.86      
C           94.67       -23.22      -31.88      
H           90.34       62.43       58.95       
H           96.93       -26.32      -32.98      
