472

C           51.56       71.1        78.35       
C           52.72       70.81       79.03       
S           50.74       69.63       78.01       
H           53.84       69.0        79.69       
H           53.36       71.55       79.42       
C           52.96       69.42       79.18       
C           52.03       68.6        78.64       
C           51.9        75.84       77.97       
C           51.16       74.68       77.94       
N           53.16       75.42       78.31       
C           53.27       74.0        78.52       
C           49.78       74.23       77.77       
O           48.76       74.84       77.52       
O           54.37       73.54       78.68       
C           48.66       72.15       78.34       
C           54.21       76.22       78.96       
H           54.12646    76.17823    80.04599    
H           54.12       77.25       78.63       
H           55.17       76.03       78.58       
H           48.79       71.23       78.94       
H           48.06952    71.92946    77.45073    
H           48.05       72.81       78.96       
N           49.86       72.83       78.06       
C           51.92       73.55       78.22       
C           51.17       72.44       78.07       
C           51.18       79.62       77.15       
C           50.08       79.0        77.72       
S           52.43       78.39       77.16       
H           49.39       76.99       78.16       
H           49.12       79.5        77.7        
C           50.23       77.61       78.06       
C           51.51       77.2        77.99       
C           51.22       83.36       74.75       
C           52.4        82.57       74.85       
C           50.07       82.83       75.33       
N           53.68       80.97       75.89       
N           54.4        81.85       75.13       
N           53.68       82.82       74.59       
C           55.65       81.43       74.48       
H           49.11       83.36       75.18       
H           49.1        81.33       76.56       
H           56.19512    80.76607    75.15092    
H           55.42       80.88       73.61       
H           56.24442    82.30415    74.21426    
C           50.05       81.66       76.16       
C           52.38       81.39       75.68       
C           51.22       80.94       76.42       
C           51.53       86.66       72.57       
C           50.34       86.73       73.32       
S           52.25       85.13       72.83       
H           49.35       85.65       74.84       
H           49.71       87.64       73.37       
C           50.15       85.6        74.14       
C           51.07       84.61       74.0        
C           51.95       91.11       70.64       
C           52.35       89.79       70.72       
N           50.78       91.16       71.44       
C           50.55       89.87       72.06       
C           53.35       88.89       70.18       
O           54.24       89.07       69.48       
O           49.57       89.77       72.82       
C           54.4        86.94       71.19       
C           50.24       92.39       72.09       
H           50.7148     92.53173    73.06086    
H           49.19       92.29       72.3        
H           50.4        93.31       71.61       
H           54.13       85.86       71.22       
H           55.03696    87.23285    72.02464    
H           54.94       87.14       70.25       
N           53.22       87.69       71.02       
C           51.64       89.0        71.68       
C           52.08       87.72       71.77       
C           53.1        94.02       68.24       
C           54.07       93.11       68.27       
S           51.72       93.48       69.13       
H           54.52       91.35       69.4        
H           55.04       93.22       67.83       
C           53.8        92.08       69.22       
C           52.56       92.13       69.87       
C           52.77       97.83       66.14       
C           54.05       97.2        66.41       
C           51.75       97.09       66.59       
N           55.47       95.64       67.12       
N           56.05       96.59       66.41       
N           55.32       97.59       66.03       
C           57.51       96.48       66.09       
H           50.7        97.33       66.3        
H           50.89       95.28       67.36       
H           57.86417    95.48253    66.35021    
H           57.73       96.69       65.07       
H           58.04828    97.18559    66.72285    
C           51.85       95.83       67.22       
C           54.19       95.96       67.12       
C           53.05       95.28       67.58       
C           51.38       101.34      65.0        
C           52.59       101.07      64.34       
S           51.0        99.95       65.94       
H           54.3        99.68       64.41       
H           52.95       101.84      63.58       
C           53.29       99.91       64.76       
C           52.49       99.18       65.6        
C           47.87       104.35      65.93       
C           48.58       103.69      64.99       
N           48.35       103.93      67.18       
C           49.52       103.23      67.03       
C           48.65       103.47      63.56       
O           47.93       103.76      62.61       
O           50.15       102.91      68.01       
C           49.68       101.74      62.24       
C           47.77       104.03      68.5        
H           48.22094    104.85795   69.04704    
H           46.67       104.09      68.51       
H           47.97       103.14      69.08       
H           49.91       100.74      62.55       
H           50.40617    101.98206   61.46399    
H           48.64       101.7       61.94       
N           49.77       102.59      63.44       
C           49.66       103.02      65.56       
C           50.42       102.37      64.67       
C           44.71       106.63      66.18       
C           44.85       106.31      64.88       
S           46.16       106.26      67.07       
H           46.18       104.99      63.71       
H           44.09       106.54      64.07       
C           46.07       105.56      64.66       
C           46.78       105.27      65.79       
C           41.28       108.44      68.23       
C           41.45       108.5       66.83       
C           42.28       107.73      68.93       
N           42.53       108.3       64.86       
N           41.33       108.84      64.75       
N           40.63       109.02      65.89       
C           40.97       109.5       63.5        
H           42.36       107.79      70.0        
H           44.05       106.48      68.77       
H           41.89152    109.78574   62.99281    
H           40.47       108.81      62.9        
H           40.26624    110.30533   63.7104     
C           43.44       107.14      68.19       
C           42.54       107.88      66.18       
C           43.58       107.24      66.85       
C           37.71       109.37      69.74       
C           38.69       109.46      70.63       
S           38.51       109.1       68.19       
H           40.9        109.06      70.87       
H           38.56       109.65      71.68       
C           40.01       109.09      70.24       
C           40.08       108.77      68.93       
C           34.19       111.93      71.77       
C           34.63       111.17      70.7        
N           35.34       112.08      72.61       
C           36.43       111.28      72.18       
C           34.14       110.51      69.51       
O           33.06       110.5       68.96       
O           37.48       111.3       72.83       
C           35.27       109.31      67.76       
C           35.71       113.19      73.45       
H           35.56938    112.87361   74.48355    
H           35.03       114.0       73.37       
H           36.73       113.53      73.19       
H           35.95       108.45      67.72       
H           35.44295    110.07098   66.99902    
H           34.23       108.93      67.67       
N           35.31       109.87      69.06       
C           36.03       110.76      70.85       
C           36.45       109.99      69.88       
C           30.68       113.16      73.0        
C           30.65       112.98      71.63       
S           32.28       112.77      73.57       
H           32.0        112.23      70.0        
H           29.7        113.11      71.03       
C           31.84       112.5       71.02       
C           32.87       112.47      72.0        
C           27.55       113.99      75.99       
C           27.25       114.15      74.59       
C           28.76       113.51      76.24       
N           27.72       114.19      72.38       
N           26.45       114.42      72.68       
N           26.14       114.46      73.99       
C           25.63       115.06      71.69       
H           29.02       113.25      77.26       
H           30.58       112.72      75.58       
H           25.9573     114.71816   70.7081     
H           24.58       114.67      71.95       
H           25.72178    116.14024   71.80297    
C           29.72       113.3       75.28       
C           28.29       113.99      73.63       
C           29.6        113.56      73.92       
C           24.53       113.42      78.47       
C           25.6        113.85      79.24       
S           24.98       113.46      76.79       
H           27.72       114.62      78.93       
H           25.53       114.08      80.28       
C           26.78       114.25      78.47       
C           26.61       114.05      77.07       
C           21.68       111.46      81.82       
C           21.82       112.0       80.55       
N           22.85       111.79      82.49       
C           23.86       112.31      81.56       
C           21.12       112.2       79.23       
O           19.97       111.93      78.81       
O           25.02       112.35      81.9        
C           21.83       112.78      76.95       
C           22.84       112.24      83.89       
H           22.79618    113.32824   83.84618    
H           23.72       111.93      84.42       
H           22.01       111.79      84.44       
H           22.6        112.19      76.36       
H           21.71652    113.78006   76.53154    
H           20.89       112.24      76.73       
N           22.1        112.81      78.31       
C           23.17       112.5       80.34       
C           23.31       112.88      79.03       
C           19.17       108.83      83.39       
C           18.59       109.39      82.32       
S           20.72       109.59      83.65       
H           19.05       111.1       80.89       
H           17.7        108.96      82.02       
C           19.4        110.45      81.73       
C           20.51       110.75      82.37       
C           18.0        105.57      86.21       
C           17.72       105.53      84.81       
C           18.86       106.59      86.54       
N           17.63       106.14      82.69       
N           16.96       105.03      82.97       
N           16.85       104.65      84.19       
C           16.43       104.25      81.86       
H           19.16       106.79      87.58       
H           19.74       108.47      85.95       
H           16.72412    104.6946    80.90925    
H           16.86       103.22      81.92       
H           15.34678    104.12885   81.86713    
C           19.13       107.66      85.66       
C           18.13       106.49      83.86       
C           18.85       107.66      84.25       
C           17.4        102.68      88.76       
C           16.28       102.77      87.99       
S           18.56       103.9       88.27       
H           15.53       104.13      86.35       
H           15.39       102.15      88.08       
C           16.33       103.84      87.04       
C           17.45       104.59      87.17       
C           17.16       98.15       90.36       
C           17.72       99.39       90.51       
N           16.31       98.2        89.26       
C           16.27       99.47       88.69       
C           18.49       100.3       91.36       
O           19.03       100.14      92.44       
O           15.67       99.72       87.65       
C           19.24       102.67      91.24       
C           15.49       97.16       88.69       
H           14.48934    97.1744     89.12194    
H           15.88       96.16       88.87       
H           15.43       97.22       87.62       
H           18.68       103.57      91.17       
H           20.28441    102.76429   90.94263    
H           19.18       102.42      92.32       
N           18.51       101.55      90.66       
C           17.21       100.22      89.42       
C           17.75       101.52      89.55       
C           17.78       94.86       92.43       
C           18.75       95.77       92.72       
S           16.76       95.45       91.2        
H           19.34       97.79       92.05       
H           19.55       95.53       93.47       
C           18.65       96.95       91.95       
C           17.56       96.98       91.13       
C           16.98       90.69       93.67       
C           18.27       91.22       93.46       
C           15.99       91.74       93.53       
N           19.87       92.79       92.9        
N           20.34       91.58       93.28       
N           19.49       90.68       93.7        
C           21.78       91.34       93.27       
H           14.98       91.51       93.83       
H           15.45       93.79       93.11       
H           22.20723    92.0964     92.61165    
H           22.24       91.46       94.3        
H           21.96398    90.29983    93.00111    
C           16.31       93.04       93.08       
C           18.55       92.56       93.05       
C           17.58       93.52       92.85       
C           16.72       86.74       93.79       
C           15.85       87.32       94.7        
S           17.39       88.09       92.87       
H           15.08       89.34       95.38       
H           15.35       86.64       95.34       
C           15.67       88.76       94.72       
C           16.68       89.24       93.89       
C           18.93       83.11       91.67       
C           17.8        83.63       92.28       
N           19.96       84.02       91.92       
C           19.5        84.97       92.84       
C           16.36       83.39       92.46       
O           15.62       82.43       92.2        
O           20.14       85.84       93.39       
C           14.43       84.73       93.04       
C           21.23       84.35       91.22       
H           22.09074    83.93048    91.74079    
H           21.2        84.25       90.13       
H           21.33       85.48       91.43       
H           14.26       85.72       92.75       
H           13.90367    84.44929    93.9523     
H           14.05       84.18       92.19       
N           15.85       84.5        93.11       
C           18.06       84.81       93.03       
C           16.89       85.35       93.5        
C           19.6        79.9        89.51       
C           18.6        79.67       90.39       
S           20.05       81.57       89.63       
H           17.41       80.72       91.87       
H           18.17       78.72       90.6        
C           18.23       80.8        91.22       
C           19.08       81.82       91.07       
C           21.55       76.86       87.12       
C           21.85       78.26       86.9        
C           20.55       76.6        87.97       
N           21.81       80.42       87.16       
N           22.63       80.13       86.17       
N           22.79       78.77       86.08       
C           23.63       81.1        85.7        
H           20.26       75.58       88.26       
H           19.28       77.27       89.54       
H           23.23166    82.08897    85.92664    
H           24.58       80.76       86.22       
H           23.65147    81.03559    84.61212    
C           19.93       77.61       88.74       
C           21.23       79.28       87.65       
C           20.19       78.95       88.62       
C           22.61       73.42       85.33       
C           23.14       74.45       84.6        
S           21.56       74.17       86.54       
H           23.15       76.71       84.76       
H           23.73       74.45       83.65       
C           22.93       75.7        85.24       
C           22.11       75.79       86.28       
C           23.43       69.77       82.3        
C           22.95       70.17       83.57       
N           24.31       70.71       81.9        
C           24.22       71.86       82.76       
C           22.26       69.77       84.74       
O           21.87       68.71       85.13       
O           24.84       72.87       82.54       
C           21.48       70.79       86.8        
C           25.31       70.71       80.75       
H           24.88875    71.22407    79.88607    
H           26.16       71.28       81.1        
H           25.67       69.76       80.47       
H           20.8        71.68       86.98       
H           22.28878    70.79       87.53074    
H           20.89       69.84       86.84       
N           22.0        70.93       85.47       
C           23.33       71.53       83.8        
C           22.69       72.02       84.91       
C           23.16       65.89       81.32       
C           23.44       66.63       80.19       
S           22.92       67.04       82.62       
H           23.99       68.66       79.6        
H           23.67       66.16       79.25       
C           23.63       68.03       80.41       
C           23.24       68.44       81.64       
C           23.35       61.46       81.66       
C           22.9        62.33       82.73       
C           23.56       62.16       80.51       
N           22.32       64.11       83.85       
N           22.15       62.99       84.49       
N           22.46       61.85       83.9        
C           22.0        63.09       85.97       
H           23.98       61.57       79.63       
H           23.72       64.04       79.43       
H           21.96392    64.13639    86.27309    
H           21.18       62.63       86.39       
H           22.90841    62.64653    86.37771    
C           23.4        63.6        80.4        
C           22.82       63.7        82.65       
C           23.06       64.47       81.44       
C           24.13       57.61       81.15       
C           24.09       57.94       82.5        
S           23.91       59.11       80.29       
H           23.69       59.62       83.86       
H           24.36       57.22       83.28       
C           23.81       59.24       82.88       
C           23.62       60.04       81.79       
C           26.41       53.5        81.02       
C           25.55       54.31       80.42       
N           26.6        53.92       82.35       
C           25.95       55.2        82.54       
C           24.98       54.6        79.1        
O           25.01       54.03       78.02       
O           26.07       55.8        83.56       
C           23.27       56.31       78.46       
C           27.07       53.19       83.48       
H           28.02415    53.64966    83.73769    
H           27.17       52.09       83.24       
H           26.32       53.14       84.26       
H           23.2        57.34       78.56       
H           22.32887    55.82539    78.71986    
H           23.59       56.12       77.45       
N           24.36       55.86       79.32       
C           25.25       55.41       81.25       
C           24.6        56.37       80.6        
C           29.08       51.01       79.58       
C           27.97       50.95       78.83       
S           28.74       52.07       80.89       
H           25.82       51.79       78.75       
H           27.92       50.32       78.0        
C           26.86       51.75       79.26       
C           27.09       52.35       80.45       
C           32.88       49.0        78.9        
C           32.6        49.52       80.18       
C           31.89       49.17       77.96       
N           31.42       50.78       81.58       
N           32.49       50.24       82.16       
N           33.32       49.62       81.34       
C           32.83       50.44       83.53       
H           32.01       48.74       76.96       
H           29.96       49.95       77.42       
H           31.89323    50.59495    84.0653     
H           33.28       49.53       83.88       
H           33.5483     51.25787    83.5869     
C           30.69       49.81       78.21       
C           31.39       50.25       80.38       
C           30.39       50.41       79.39       
C           36.51       47.75       78.17       
C           35.67       46.98       77.43       
S           35.6        48.91       79.06       
H           33.51       46.96       76.9        
H           36.04       46.28       76.63       
C           34.28       47.34       77.53       
C           34.08       48.27       78.5        
C           40.81       49.26       79.39       
C           40.07       48.42       78.68       
N           39.99       50.23       79.84       
C           38.62       49.88       79.65       
C           40.23       47.22       77.88       
O           41.27       46.64       77.55       
O           37.75       50.43       80.32       
C           38.64       45.86       76.49       
C           40.26       51.23       80.85       
H           40.31517    50.74041    81.82229    
H           39.63       52.07       80.86       
H           41.21       51.68       80.59       
H           37.96       46.23       75.8        
H           38.21859    44.95397    76.92546    
H           39.57       45.66       76.0        
N           38.9        46.8        77.57       
C           38.7        48.68       78.84       
C           37.98       47.7        78.16       
C           44.59       48.54       80.25       
C           44.43       49.9        79.98       
S           43.09       47.69       79.94       
H           42.77       51.09       79.26       
H           45.24       50.59       79.98       
C           43.13       50.17       79.62       
C           42.25       49.17       79.61       
C           48.3        46.47       81.43       
C           48.11       47.89       81.58       
C           47.24       45.81       80.81       
N           47.06       49.83       81.5        
N           48.33       49.96       81.92       
N           49.05       48.81       81.96       
C           48.88       51.29       82.36       
H           47.17       44.7        80.76       
H           45.2        45.9        80.11       
H           48.5168     52.03735    81.65456    
H           49.95       51.3        82.47       
H           48.55052    51.40715    83.39238    
C           46.01       46.51       80.47       
C           46.85       48.56       81.19       
C           45.77       47.83       80.68       
H           51.96       67.59       79.03       
H           48.66       45.97       82.3        
