472

C           64.31       65.89       9.35        
C           63.46       66.94       9.38        
S           64.87       65.68       7.73        
H           62.87       68.59       8.14        
H           62.94       67.31       10.23       
C           63.41       67.62       8.17        
C           63.98       67.02       7.1         
C           64.34       64.4        13.99       
C           64.72       64.19       12.64       
N           63.77       65.66       14.02       
C           63.47       66.18       12.7        
C           65.37       63.22       11.79       
O           65.95       62.19       12.0        
O           63.1        67.32       12.56       
C           66.06       63.23       9.43        
C           63.36       66.47       15.12       
H           62.27409    66.56411    15.12724    
H           63.81       67.45       15.0        
H           63.81       66.21       16.1        
H           66.54       63.97       8.83        
H           65.46239    62.49559    8.88999     
H           66.87       62.71       9.95        
N           65.3        63.84       10.47       
C           64.24       65.23       11.81       
C           64.6        65.04       10.5        
C           64.48       62.23       17.21       
C           65.41       61.73       16.29       
S           63.83       63.74       16.66       
H           66.03       62.23       14.22       
H           66.01       60.85       16.46       
C           65.47       62.51       15.08       
C           64.72       63.67       15.14       
C           64.13       61.01       21.52       
C           63.11       61.69       20.86       
C           65.21       60.64       20.66       
N           62.12       62.89       19.16       
N           61.36       62.75       20.24       
N           61.88       62.13       21.26       
C           59.94       63.24       20.32       
H           66.02       60.01       21.03       
H           66.19       60.68       18.84       
H           59.73145    63.6571     19.33479    
H           59.29       62.33       20.6        
H           59.87591    63.98775    21.11048    
C           65.28       61.0        19.3        
C           63.26       62.2        19.49       
C           64.33       61.78       18.65       
C           64.94       59.73       25.21       
C           63.75       60.43       25.24       
S           65.58       59.86       23.58       
H           62.35       61.47       23.85       
H           63.23       60.53       26.15       
C           63.19       60.85       23.94       
C           64.12       60.6        22.96       
C           65.15       57.68       29.59       
C           65.74       57.9        28.37       
N           63.94       58.34       29.63       
C           63.66       59.05       28.42       
C           66.99       57.68       27.64       
O           67.94       57.05       27.99       
O           62.76       59.81       28.28       
C           67.89       58.35       25.46       
C           62.81       58.07       30.49       
H           62.04296    57.49472    29.97154    
H           62.36       58.9        30.92       
H           63.12       57.53       31.41       
H           67.87       59.27       24.89       
H           67.92505    57.48779    24.79407    
H           68.72       58.39       26.15       
N           66.74       58.27       26.33       
C           64.86       58.71       27.56       
C           65.49       58.91       26.31       
C           66.41       54.95       32.22       
C           66.22       56.13       32.86       
S           66.13       55.19       30.5        
H           65.59       58.26       32.37       
H           66.5        56.18       33.98       
C           65.75       57.21       32.02       
C           65.67       56.87       30.66       
C           67.51       50.94       33.61       
C           68.25       51.65       32.63       
C           66.35       51.61       34.06       
N           68.75       53.33       31.27       
N           69.64       52.32       31.27       
N           69.43       51.3        32.08       
C           70.86       52.41       30.47       
H           65.62       50.97       34.58       
H           65.07       53.27       33.96       
H           70.73201    53.21352    29.7447     
H           71.72       52.6        31.06       
H           70.99473    51.43147    30.0091     
C           65.97       52.86       33.55       
C           67.93       53.0        32.22       
C           66.81       53.65       32.76       
C           67.77       47.16       34.85       
C           68.43       47.25       33.69       
S           67.12       48.67       35.21       
H           69.01       48.69       32.21       
H           68.95       46.43       33.2        
C           68.35       48.55       33.09       
C           67.71       49.51       33.83       
C           66.31       44.02       38.17       
C           67.24       44.29       37.21       
N           65.38       45.05       38.18       
C           65.75       46.14       37.27       
C           68.48       43.84       36.54       
O           69.1        42.86       36.73       
O           65.12       47.12       37.19       
C           70.2        44.97       35.27       
C           64.08       45.23       38.79       
H           63.30131    44.72057    38.22235    
H           63.98       44.75       39.76       
H           63.7        46.24       38.79       
H           70.56       46.02       35.3        
H           70.45367    44.5134     34.31331    
H           70.68       44.4        36.02       
N           68.78       44.87       35.6        
C           66.97       45.66       36.63       
C           67.87       45.94       35.66       
C           65.9        40.98       40.64       
C           66.84       40.69       39.72       
S           65.15       42.53       40.24       
H           67.89       41.65       38.06       
H           67.41       39.76       39.73       
C           67.02       41.7        38.75       
C           66.23       42.81       38.91       
C           63.84       38.86       44.05       
C           64.67       38.08       43.16       
C           63.89       40.19       43.8        
N           65.89       37.79       41.2        
N           65.65       36.65       41.86       
N           64.96       36.76       43.01       
C           65.76       35.27       41.35       
H           63.31       40.82       44.36       
H           64.38       41.84       42.56       
H           65.55573    35.26296    40.27934    
H           66.74       34.96       41.54       
H           65.14618    34.55273    41.89485    
C           64.6        40.77       42.69       
C           65.32       38.71       41.99       
C           65.28       40.11       41.73       
C           61.37       37.85       47.07       
C           61.9        36.7        46.47       
S           61.9        39.16       46.05       
H           63.36       36.05       44.97       
H           61.6        35.67       46.76       
C           62.83       36.92       45.44       
C           63.05       38.25       45.15       
C           58.0        40.07       49.49       
C           58.44       38.9        48.99       
N           59.03       40.96       49.64       
C           60.21       40.4        49.0        
C           58.02       37.55       48.68       
O           56.97       37.02       48.81       
O           61.3        41.03       48.8        
C           59.03       35.62       47.61       
C           59.33       41.72       50.87       
H           60.15853    41.27666    51.42235    
H           58.47       41.84       51.51       
H           59.56       42.79       50.62       
H           59.96       35.25       47.85       
H           58.76079    35.49248    46.56149    
H           58.42       35.12       48.37       
N           59.13       36.99       47.88       
C           59.8        39.08       48.52       
C           60.19       37.91       47.86       
C           54.33       41.43       49.95       
C           54.29       40.32       49.19       
S           55.96       41.75       50.43       
H           55.72       38.91       48.35       
H           53.36       39.81       48.76       
C           55.57       39.77       48.95       
C           56.63       40.42       49.56       
C           51.39       44.45       51.2        
C           51.1        43.61       50.09       
C           52.48       44.07       51.91       
N           51.47       41.78       48.7        
N           50.35       42.35       48.5        
N           50.06       43.49       49.19       
C           49.55       41.9        47.41       
H           52.81       44.61       52.74       
H           54.25       42.96       52.16       
H           50.15782    41.59252    46.55905    
H           48.97       41.09       47.75       
H           48.75872    42.59603    47.13159    
C           53.38       43.08       51.51       
C           52.04       42.55       49.69       
C           53.28       42.29       50.37       
C           48.82       47.32       51.99       
C           49.82       47.42       52.91       
S           49.18       46.06       50.86       
H           51.72       46.35       53.3        
H           49.83       48.14       53.7        
C           50.82       46.5        52.64       
C           50.65       45.63       51.56       
C           44.3        48.45       50.68       
C           45.39       48.66       51.48       
N           44.58       47.39       49.84       
C           45.92       46.85       50.2        
C           45.87       49.55       52.5        
O           45.35       50.43       53.11       
O           46.35       45.85       49.58       
C           48.13       50.23       53.12       
C           44.29       47.16       48.45       
H           45.01959    47.71077    47.85632    
H           43.27       47.52       48.22       
H           44.25       46.12       48.18       
H           48.98       50.26       52.52       
H           48.22406    50.26618    54.20533    
H           47.63       51.1        52.84       
N           47.23       49.21       52.64       
C           46.42       47.74       51.23       
C           47.54       48.0        52.0        
C           40.53       49.88       50.59       
C           41.14       50.22       51.78       
S           41.71       49.07       49.63       
H           43.1        50.01       52.81       
H           40.54       50.67       52.6        
C           42.58       49.87       51.91       
C           43.01       49.09       50.85       
C           36.39       50.84       49.26       
C           36.79       50.81       50.64       
C           37.38       50.48       48.38       
N           38.11       50.48       52.4        
N           36.93       50.85       52.82       
N           36.06       51.07       51.77       
C           36.92       51.55       54.09       
H           37.22       50.19       47.38       
H           39.34       49.95       47.89       
H           37.76803    51.18459    54.66915    
H           37.06       52.64       53.97       
H           36.02256    51.3607     54.67895    
C           38.73       50.16       48.78       
C           38.13       50.46       51.04       
C           39.17       50.19       50.11       
C           32.55       50.41       48.53       
C           33.16       50.78       47.35       
S           33.82       50.34       49.67       
H           35.16       51.42       46.6        
H           32.65       50.9        46.43       
C           34.54       51.13       47.46       
C           35.05       51.0        48.72       
C           28.22       48.64       47.19       
C           29.07       49.14       48.18       
N           28.99       48.67       45.98       
C           30.29       49.32       46.22       
C           29.16       49.51       49.61       
O           28.37       49.22       50.48       
O           31.15       49.37       45.4        
C           30.98       50.24       51.09       
C           28.99       47.85       44.81       
H           29.43774    46.87633    45.009      
H           29.4        48.38       43.94       
H           27.94       47.67       44.49       
H           31.82       50.92       50.99       
H           31.33244    49.42005    51.71575    
H           30.13       50.75       51.54       
N           30.53       49.86       49.79       
C           30.35       49.52       47.64       
C           31.23       49.92       48.65       
C           24.64       47.04       47.48       
C           25.21       47.06       48.7        
S           25.64       47.77       46.29       
H           27.08       47.78       49.48       
H           24.76       46.83       49.65       
C           26.46       47.7        48.67       
C           26.94       48.01       47.44       
C           20.61       45.95       46.3        
C           20.95       46.25       47.61       
C           21.59       46.13       45.36       
N           22.27       46.82       49.32       
N           21.01       46.47       49.7        
N           20.15       46.21       48.71       
C           20.57       46.62       51.13       
H           21.38       46.0        44.31       
H           23.57       46.8        44.91       
H           21.46097    46.74314    51.74571    
H           20.01       47.58       51.21       
H           19.95132    45.77376    51.42867    
C           22.86       46.63       45.78       
C           22.21       46.65       48.0        
C           23.27       46.84       47.07       
C           17.34       44.31       44.84       
C           17.03       44.81       46.1        
S           18.99       44.8        44.45       
H           18.02       46.0        47.69       
H           16.08       44.57       46.59       
C           18.04       45.53       46.7        
C           19.19       45.64       45.95       
C           13.23       42.02       43.29       
C           14.57       42.38       43.12       
N           12.87       42.61       44.48       
C           13.95       43.4        45.13       
C           15.71       42.16       42.23       
O           15.88       41.29       41.33       
O           13.88       43.92       46.23       
C           18.05       42.96       41.96       
C           11.65       42.67       45.19       
H           10.89728    43.22389    44.62901    
H           11.36       41.71       45.52       
H           11.69       43.17       46.12       
H           18.82       43.04       42.65       
H           18.14735    43.73882    41.20365    
H           18.1        41.98       41.49       
N           16.76       43.01       42.72       
C           15.09       43.26       44.21       
C           16.43       43.56       43.96       
C           10.88       39.34       41.77       
C           11.8        39.68       40.8        
S           11.41       40.06       43.29       
H           13.44       41.1        40.69       
H           11.83       39.32       39.81       
C           12.67       40.76       41.25       
C           12.38       41.22       42.55       
C           7.36        36.78       41.29       
C           7.67        37.32       42.6        
C           8.28        37.02       40.32       
N           8.83        38.54       43.98       
N           7.77        37.96       44.54       
N           6.97        37.26       43.74       
C           7.62        38.06       45.97       
H           8.15        36.62       39.3        
H           10.05       38.08       39.67       
H           8.47791     38.61049    46.35606    
H           6.63        38.57       46.17       
H           7.59767     37.06263    46.40914    
C           9.4         37.83       40.46       
C           8.81        38.14       42.68       
C           9.72        38.47       41.63       
C           4.21        35.18       39.53       
C           3.99        35.26       40.89       
S           5.82        35.93       39.28       
H           5.02        35.82       42.81       
H           3.1         34.85       41.36       
C           5.03        35.77       41.71       
C           6.11        36.11       40.99       
C           0.71        32.45       37.85       
C           1.65        33.43       37.59       
N           0.75        32.24       39.19       
C           1.68        33.01       39.88       
C           2.36        34.16       36.51       
O           2.29        34.08       35.28       
O           1.79        32.96       41.07       
C           3.99        36.11       36.53       
C           -0.08       31.33       39.99       
H           0.45245     30.40901    40.22744    
H           -0.35       31.77       41.01       
H           -1.03       31.15       39.5        
H           5.07        36.1        36.62       
H           3.52821     37.06911    36.76445    
H           3.91        35.82       35.5        
N           3.37        34.97       37.22       
C           2.3         33.75       38.81       
C           3.34        34.62       38.52       
C           -1.18       30.09       35.41       
C           -0.84       31.22       34.73       
S           -0.91       30.26       37.06       
H           -0.03       33.17       35.44       
H           -0.83       31.3        33.67       
C           -0.28       32.19       35.64       
C           -0.12       31.74       36.9        
C           -2.98       26.46       33.69       
C           -2.43       26.44       35.04       
C           -2.84       27.63       33.0        
N           -1.31       27.28       36.8        
N           -1.64       26.04       36.96       
N           -2.43       25.51       36.03       
C           -1.32       25.36       38.17       
H           -3.2        27.8        31.97       
H           -2.34       29.67       33.06       
H           -0.44203    25.8025     38.64059    
H           -2.2        25.55       38.82       
H           -1.15553    24.32313    37.87682    
C           -2.34       28.78       33.68       
C           -1.76       27.63       35.58       
C           -1.76       28.82       34.89       
C           -4.58       22.93       32.43       
C           -4.89       23.92       31.61       
S           -3.75       23.65       33.75       
H           -4.53       26.07       31.37       
H           -5.56       23.81       30.78       
C           -4.34       25.2        31.94       
C           -3.59       25.27       33.11       
C           -6.84       19.22       30.51       
C           -6.1        19.69       31.55       
N           -7.26       20.29       29.75       
C           -6.59       21.5        30.06       
C           -5.4        19.32       32.72       
O           -5.18       18.33       33.35       
O           -6.64       22.55       29.34       
C           -3.91       20.47       34.38       
C           -8.38       20.32       28.77       
H           -9.11584    21.06999    29.06009    
H           -8.91       19.37       28.67       
H           -7.99       20.53       27.82       
H           -4.04       21.31       34.96       
H           -2.85574    20.24767    34.21505    
H           -4.32       19.67       34.96       
N           -4.78       20.5        33.15       
C           -5.8        21.08       31.29       
C           -5.02       21.56       32.26       
C           -7.47       15.61       29.0        
C           -7.15       15.47       30.31       
S           -7.51       17.27       28.48       
H           -6.56       16.94       31.93       
H           -7.17       14.53       30.83       
C           -6.79       16.74       30.92       
C           -7.12       17.83       30.11       
C           -9.25       12.81       26.15       
C           -8.78       12.34       27.42       
C           -9.07       14.13       25.92       
N           -7.72       12.49       29.4        
N           -7.94       11.21       29.01       
N           -8.72       11.08       27.96       
C           -7.39       10.02       29.73       
H           -9.45       14.52       25.02       
H           -8.47       16.07       26.47       
H           -6.38498    10.18279    30.11927    
H           -8.13       9.81        30.58       
H           -7.36218    9.1644      29.05526    
C           -8.58       15.07       26.86       
C           -8.11       13.2        28.34       
C           -8.1        14.63       28.1        
C           -10.93      11.43       22.88       
C           -10.74      10.36       23.75       
S           -10.4       12.89       23.69       
H           -9.83       9.99        25.78       
H           -10.98      9.33        23.56       
C           -10.1       10.69       24.99       
C           -9.9        12.03       25.11       
C           -13.44      9.74        19.24       
C           -12.85      10.85       19.8        
N           -13.13      8.63        19.98       
C           -12.35      8.99        21.15       
C           -12.58      12.28       19.66       
O           -13.01      13.17       18.96       
O           -11.86      8.22        21.92       
C           -11.64      14.01       21.0        
C           -13.57      7.19        19.75       
H           -12.66036   6.62858     19.5368     
H           -14.44      7.04        19.11       
H           -13.99      6.84        20.79       
H           -10.69      14.18       21.48       
H           -12.43818   14.44145    21.60403    
H           -11.49      14.46       20.06       
N           -11.88      12.59       20.81       
C           -12.25      10.43       21.06       
C           -11.65      11.49       21.64       
C           -15.54      9.54        15.9        
C           -15.64      10.79       16.46       
S           -14.55      8.58        16.95       
H           -14.93      11.87       18.23       
H           -16.06      11.67       16.03       
C           -14.99      10.94       17.71       
C           -14.42      9.82        18.18       
C           -18.01      7.44        12.83       
C           -17.72      8.82        12.76       
C           -17.38      6.85        13.86       
N           -16.98      10.78       13.36       
N           -17.66      10.79       12.22       
N           -18.12      9.64        11.78       
C           -18.25      12.04       11.64       
H           -17.35      5.8         13.8        
H           -16.17      6.92        15.64       
H           -19.03436   11.71318    10.95731    
H           -17.42      12.44       11.04       
H           -18.70953   12.64093    12.42474    
C           -16.5       7.52        14.82       
C           -16.94      9.48        13.76       
C           -16.31      8.85        14.87       
H           63.6        67.03       6.05        
H           -18.04      6.88        11.92       
