472

C           76.54       4.41        74.31       
C           76.13       5.31        75.24       
S           78.26       3.96        74.59       
H           77.17       6.45        76.74       
H           75.12       5.82        75.32       
C           77.25       5.75        75.97       
C           78.45       5.13        75.84       
C           72.4        2.41        72.98       
C           73.74       2.65        72.71       
N           72.05       3.07        74.2        
C           73.3        3.74        74.72       
C           74.72       2.54        71.68       
O           74.67       2.12        70.54       
O           73.32       4.32        75.83       
C           77.1        3.33        71.33       
C           70.75       3.1         74.83       
H           70.45243    4.14857     74.83708    
H           70.8        2.71        75.88       
H           70.11       2.34        74.4        
H           77.97       2.88        71.88       
H           77.29284    4.39419     71.1943     
H           76.96       2.7         70.39       
N           75.98       3.15        72.17       
C           74.36       3.41        73.75       
C           75.7        3.57        73.55       
C           69.65       0.5         70.64       
C           70.91       0.07        70.42       
S           69.83       1.55        72.07       
H           72.94       0.44        70.84       
H           71.14       -0.85       69.84       
C           71.93       0.78        71.06       
C           71.58       1.54        72.13       
C           65.73       -1.41       69.65       
C           65.84       -0.12       70.21       
C           66.97       -2.02       69.47       
N           66.75       1.62        71.22       
N           65.46       1.59        71.27       
N           64.83       0.61        70.71       
C           64.81       2.63        72.07       
H           66.91       -3.06       69.22       
H           69.05       -2.0        69.62       
H           65.49256    3.47803     72.12516    
H           63.99       2.88        71.5        
H           64.55248    2.26518     73.06433    
C           68.16       -1.41       69.8        
C           67.11       0.48        70.57       
C           68.32       -0.12       70.3        
C           62.75       -3.93       68.93       
C           62.46       -3.09       69.93       
S           64.34       -3.51       68.27       
H           63.29       -1.39       70.98       
H           61.49       -3.09       70.41       
C           63.44       -2.15       70.24       
C           64.59       -2.24       69.48       
C           58.62       -6.26       68.12       
C           60.0        -6.19       67.95       
N           58.25       -5.17       68.98       
C           59.42       -4.42       69.22       
C           61.03       -6.82       67.2        
O           61.13       -7.73       66.48       
O           59.25       -3.34       69.86       
C           63.45       -6.75       67.34       
C           57.25       -5.25       70.03       
H           57.67617    -5.85082    70.83343    
H           56.31       -5.68       69.73       
H           56.97       -4.28       70.39       
H           64.18       -6.57       68.14       
H           63.8008     -6.47228    66.34606    
H           63.3        -7.84       67.36       
N           62.22       -6.12       67.67       
C           60.57       -5.07       68.58       
C           61.87       -4.95       68.29       
C           57.14       -9.87       67.74       
C           56.11       -8.96       67.49       
S           58.59       -9.01       68.15       
H           56.07       -6.71       67.37       
H           55.23       -9.24       66.96       
C           56.6        -7.61       67.56       
C           57.91       -7.48       67.81       
C           56.95       -14.26      67.91       
C           55.74       -13.44      68.04       
C           58.01       -13.47      67.71       
N           54.47       -11.59      67.99       
N           53.79       -12.7       68.32       
N           54.42       -13.85      68.2        
C           52.53       -12.45      69.07       
H           58.94       -13.88      67.51       
H           59.03       -11.56      67.55       
H           52.13752    -11.45768   68.84784    
H           51.8        -13.26      68.82       
H           52.73736    -12.5501    70.1354     
C           58.07       -12.07      67.77       
C           55.77       -12.03      67.97       
C           56.97       -11.32      67.82       
C           57.7        -18.13      67.34       
C           56.42       -17.94      67.76       
S           58.35       -16.53      67.17       
H           55.04       -16.43      68.49       
H           55.8        -18.75      68.12       
C           55.98       -16.64      68.08       
C           56.93       -15.71      67.8        
C           57.72       -22.84      66.36       
C           58.36       -21.64      66.27       
N           56.6        -22.69      67.03       
C           56.44       -21.29      67.38       
C           59.53       -20.95      65.78       
O           60.46       -21.38      65.13       
O           55.54       -20.98      68.12       
C           60.54       -18.7       65.79       
C           55.87       -23.66      67.81       
H           56.57148    -24.08699   68.52673    
H           54.99       -23.24      68.35       
H           55.41       -24.39      67.18       
H           60.59       -17.93      66.56       
H           60.62572    -18.34996   64.7613     
H           61.41       -19.3       65.92       
N           59.39       -19.58      66.09       
C           57.61       -20.59      66.91       
C           58.27       -19.38      66.89       
C           59.73       -26.13      65.33       
C           58.36       -26.36      65.24       
S           60.0        -24.49      65.79       
H           56.56       -25.26      65.7        
H           57.89       -27.29      65.15       
C           57.59       -25.2       65.59       
C           58.3        -24.1       65.81       
C           63.34       -28.62      65.49       
C           62.04       -29.16      65.46       
C           63.34       -27.24      65.5        
N           59.82       -29.23      64.99       
N           60.43       -30.37      64.97       
N           61.71       -30.45      65.35       
C           59.75       -31.56      64.49       
H           64.26       -26.75      65.59       
H           62.26       -25.39      65.19       
H           58.70169    -31.31375   64.32114    
H           60.19       -31.94      63.52       
H           59.90746    -32.3473    65.2272     
C           62.2        -26.49      65.26       
C           60.88       -28.4       65.08       
C           60.87       -26.99      65.19       
C           66.92       -30.09      66.3        
C           66.16       -31.11      65.8        
S           65.96       -28.64      66.3        
H           64.09       -31.36      65.09       
H           66.5        -32.12      65.71       
C           64.86       -30.71      65.37       
C           64.51       -29.42      65.59       
C           71.08       -28.74      68.09       
C           70.21       -29.72      67.88       
N           70.46       -27.54      67.81       
C           69.11       -27.81      67.32       
C           70.06       -31.2       67.82       
O           70.72       -32.05      68.27       
O           68.34       -26.89      67.07       
C           68.07       -32.63      67.84       
C           70.92       -26.11      67.82       
H           71.22935    -25.91314   66.79353    
H           71.67       -26.06      68.55       
H           70.14       -25.41      68.14       
H           67.58       -33.2       67.11       
H           67.34477    -32.4074    68.62268    
H           68.82       -33.18      68.33       
N           68.74       -31.46      67.36       
C           69.06       -29.24      67.23       
C           68.19       -30.27      66.87       
C           74.78       -29.73      67.25       
C           74.78       -28.52      67.91       
S           73.16       -30.28      67.16       
H           73.26       -27.21      68.85       
H           75.61       -27.88      67.96       
C           73.51       -28.11      68.37       
C           72.52       -29.01      68.1        
C           77.14       -31.33      63.87       
C           77.52       -30.17      64.52       
C           76.2        -32.05      64.5        
N           77.32       -28.42      65.79       
N           78.33       -28.25      64.91       
N           78.47       -29.25      64.06       
C           79.53       -27.44      65.11       
H           75.8        -32.95      63.99       
H           74.67       -32.09      66.07       
H           79.24909    -26.63329   65.78706    
H           80.42       -28.12      65.34       
H           79.76703    -27.0008    64.14097    
C           75.51       -31.52      65.65       
C           76.78       -29.64      65.63       
C           75.74       -30.32      66.3        
C           77.02       -31.03      60.01       
C           77.29       -32.36      60.32       
S           76.99       -30.12      61.47       
H           77.62       -33.58      62.09       
H           77.16       -33.18      59.59       
C           77.48       -32.61      61.65       
C           77.34       -31.51      62.42       
C           76.77       -31.09      55.23       
C           76.53       -30.5       56.42       
N           77.57       -32.16      55.62       
C           77.74       -32.3       57.02       
C           75.92       -29.31      56.98       
O           75.24       -28.46      56.41       
O           78.33       -33.22      57.53       
C           75.11       -28.72      59.23       
C           78.3        -33.07      54.72       
H           77.90103    -34.08434   54.72676    
H           79.39       -33.08      54.99       
H           78.36       -32.84      53.68       
H           75.56       -28.43      60.15       
H           74.20059    -29.28471   59.43535    
H           74.89       -27.85      58.69       
N           76.04       -29.47      58.41       
C           77.06       -31.16      57.58       
C           76.8        -30.56      58.74       
C           75.7        -30.4       51.5        
C           75.5        -29.29      52.24       
S           76.5        -31.62      52.41       
H           75.81       -28.68      54.26       
H           74.96       -28.48      51.8        
C           75.96       -29.44      53.56       
C           76.52       -30.67      53.85       
C           74.2        -31.68      47.56       
C           73.6        -30.57      48.21       
C           75.27       -32.23      48.28       
N           73.23       -29.01      49.85       
N           72.44       -28.92      48.78       
N           72.53       -29.79      47.76       
C           71.42       -27.91      48.71       
H           75.8        -33.04      47.77       
H           76.57       -32.16      49.97       
H           71.83718    -26.92714   48.9292     
H           71.13       -27.94      47.66       
H           70.61939    -28.20572   49.38799    
C           75.73       -31.74      49.51       
C           74.03       -30.06      49.51       
C           75.19       -30.66      50.16       
C           73.03       -33.67      44.33       
C           73.01       -32.29      44.08       
S           73.65       -33.88      45.95       
H           73.25       -30.43      45.37       
H           72.64       -31.84      43.21       
C           73.45       -31.5       45.21       
C           73.87       -32.21      46.26       
C           69.66       -35.18      41.37       
C           70.64       -35.53      42.26       
N           69.7        -33.8       41.13       
C           70.57       -33.19      42.08       
C           71.34       -36.61      42.91       
O           71.2        -37.85      42.91       
O           70.72       -32.04      41.98       
C           73.34       -36.79      44.37       
C           68.61       -32.99      40.5        
H           67.80503    -32.85121   41.2217     
H           68.19       -33.44      39.61       
H           68.97       -32.09      40.23       
H           73.62       -36.52      45.38       
H           74.16592    -36.93364   43.67335    
H           72.87       -37.74      44.54       
N           72.31       -35.95      43.76       
C           71.29       -34.32      42.7        
C           72.25       -34.61      43.62       
C           67.41       -37.44      39.07       
C           67.87       -38.21      40.07       
S           68.05       -35.84      39.2        
H           69.18       -37.96      41.75       
H           67.56       -39.25      40.19       
C           68.65       -37.46      40.98       
C           68.8        -36.11      40.75       
C           66.5        -38.6       34.94       
C           65.98       -37.37      35.41       
C           67.15       -39.37      35.82       
N           65.31       -35.83      36.96       
N           64.99       -35.56      35.67       
N           65.24       -36.44      34.71       
C           63.94       -34.57      35.57       
H           67.65       -40.32      35.51       
H           68.13       -39.57      37.72       
H           63.89762    -33.96258   36.47407    
H           64.28       -34.04      34.64       
H           62.99364    -35.04663   35.31441    
C           67.37       -39.0       37.19       
C           66.07       -37.04      36.79       
C           66.91       -37.87      37.77       
C           66.9        -38.66      30.9        
C           66.3        -39.84      31.3        
S           67.19       -37.64      32.35       
H           65.99       -40.87      33.22       
H           66.01       -40.62      30.58       
C           66.25       -39.94      32.77       
C           66.47       -38.8       33.47       
C           66.66       -39.18      26.08       
C           67.18       -38.49      27.2        
N           65.65       -39.99      26.62       
C           65.54       -39.93      28.06       
C           68.18       -37.49      27.54       
O           68.96       -36.82      26.89       
O           64.67       -40.58      28.6        
C           69.05       -36.64      29.66       
C           64.69       -40.8       25.84       
H           63.89076    -40.13275   25.51737    
H           65.24       -41.26      25.0        
H           64.22       -41.63      26.46       
H           69.24       -37.03      30.63       
H           68.68999    -35.6114    29.68204    
H           70.01       -36.67      29.17       
N           68.06       -37.49      28.99       
C           66.55       -38.91      28.45       
C           67.04       -38.27      29.54       
C           67.26       -38.62      22.19       
C           67.49       -37.44      22.84       
S           66.91       -39.88      23.39       
H           67.48       -36.77      24.98       
H           67.69       -36.53      22.27       
C           67.35       -37.55      24.28       
C           66.91       -38.81      24.76       
C           68.6        -39.91      18.14       
C           67.54       -40.6       18.88       
C           69.03       -38.74      18.8        
N           65.95       -40.89      20.43       
N           65.99       -41.84      19.54       
N           66.91       -41.73      18.53       
C           65.57       -43.16      19.92       
H           69.79       -38.19      18.31       
H           68.79       -37.33      20.43       
H           64.81678    -43.01354   20.69415    
H           65.14       -43.63      19.02       
H           66.41776    -43.79752   20.17094    
C           68.46       -38.29      20.03       
C           67.03       -40.09      20.13       
C           67.55       -38.92      20.82       
C           69.61       -41.28      14.54       
C           70.72       -40.74      15.16       
S           68.2        -41.1       15.6        
H           71.09       -39.38      16.86       
H           71.75       -40.68      14.74       
C           70.35       -39.97      16.29       
C           69.13       -40.32      16.84       
C           71.45       -44.23      11.38       
C           70.39       -43.55      11.87       
N           72.54       -43.77      12.12       
C           72.12       -42.98      13.25       
C           69.0        -43.4       11.6        
O           68.16       -43.82      10.81       
O           72.88       -42.61      14.13       
C           67.41       -41.73      12.46       
C           73.95       -43.76      11.72       
H           74.02246    -43.18033   10.79977    
H           74.61       -43.41      12.45       
H           74.35       -44.75      11.51       
H           67.56       -40.63      12.54       
H           66.51566    -42.0821    12.97407    
H           67.23       -41.8       11.46       
N           68.6        -42.48      12.66       
C           70.71       -42.83      13.01       
C           69.63       -42.2       13.49       
C           72.02       -47.17      8.74        
C           70.75       -46.75      8.76        
S           72.87       -46.2       9.9         
H           69.36       -45.36      9.73        
H           70.03       -47.24      8.15        
C           70.41       -45.67      9.58        
C           71.48       -45.21      10.3        
C           73.72       -50.11      5.92        
C           74.5        -49.41      6.9         
C           72.45       -49.78      6.02        
N           75.02       -48.25      8.77        
N           76.04       -48.88      8.28        
N           75.83       -49.58      7.14        
C           77.36       -48.58      8.82        
H           71.77       -50.23      5.26        
H           70.88       -48.49      6.75        
H           77.30846    -47.99832   9.74038     
H           77.87       -49.52      9.03        
H           78.02308    -48.07916   8.1146      
C           71.91       -48.81      6.9         
C           73.95       -48.59      7.92        
C           72.62       -48.22      7.95        
C           74.51       -52.43      2.79        
C           75.63       -52.36      3.6         
S           73.17       -51.51      3.58        
H           76.17       -51.56      5.57        
H           76.58       -52.75      3.22        
C           75.4        -51.7       4.84        
C           74.19       -51.1       4.92        
C           72.92       -53.07      -1.61       
C           73.73       -53.51      -0.6        
N           72.36       -51.91      -1.18       
C           72.71       -51.69      0.18        
C           74.73       -54.5       -0.26       
O           75.15       -55.43      -0.88       
O           72.13       -50.78      0.82        
C           75.47       -55.32      1.89        
C           71.87       -50.72      -1.91       
H           72.58191    -49.8975    -1.84088    
H           70.9        -50.47      -1.5        
H           71.62       -50.89      -2.97       
H           74.85       -55.38      2.77        
H           76.53034    -55.32721   2.14246     
H           75.26       -56.25      1.34        
N           75.08       -54.2       1.07        
C           73.67       -52.7       0.54        
C           74.4        -53.09      1.55        
C           72.1        -54.28      -5.35       
C           72.96       -55.2       -4.76       
S           71.6        -53.04      -4.22       
H           74.02       -55.39      -2.75       
H           73.32       -56.14      -5.27       
C           73.24       -54.84      -3.38       
C           72.61       -53.7       -2.94       
C           70.76       -54.38      -9.61       
C           71.4        -55.45      -9.0        
C           70.75       -53.24      -8.78       
N           72.53       -56.67      -7.53       
N           72.56       -57.24      -8.74       
N           71.87       -56.57      -9.68       
C           73.33       -58.44      -9.06       
H           70.14       -52.4       -9.12       
H           70.95       -52.43      -6.79       
H           73.90458    -58.7413    -8.18412    
H           72.69       -59.19      -9.23       
H           73.99348    -58.28104   -9.91008    
C           71.1        -53.3       -7.35       
C           71.83       -55.47      -7.63       
C           71.7        -54.34      -6.75       
C           70.55       -53.59      -13.5       
C           70.26       -54.91      -13.35      
S           70.41       -52.83      -11.97      
H           70.09       -56.37      -11.77      
H           70.39       -55.64      -14.13      
C           70.19       -55.33      -11.99      
C           70.4        -54.32      -11.04      
C           72.06       -50.06      -16.5       
C           71.28       -51.23      -16.26      
N           72.46       -49.76      -15.13      
C           72.29       -50.9       -14.27      
C           70.3        -52.06      -16.89      
O           69.81       -52.09      -17.99      
O           72.72       -50.96      -13.13      
C           68.85       -53.86      -16.09      
C           72.41       -48.42      -14.56      
H           71.48456    -48.30171   -13.99638   
H           72.37       -47.65      -15.35      
H           73.35       -48.18      -14.03      
H           68.34       -53.81      -15.11      
H           69.0606     -54.89194   -16.3708    
H           68.23       -53.44      -16.87      
N           70.0        -53.08      -15.89      
C           71.43       -51.77      -14.93      
C           70.77       -52.93      -14.76      
C           71.89       -48.05      -19.87      
C           72.79       -47.41      -18.98      
S           71.16       -49.44      -19.08      
H           73.54       -47.66      -16.94      
H           73.29       -46.49      -19.15      
C           72.92       -48.07      -17.77      
C           72.08       -49.14      -17.63      
C           70.34       -46.89      -23.73      
C           71.16       -46.03      -22.94      
C           70.13       -48.13      -23.21      
N           72.1        -45.23      -21.08      
N           71.98       -44.31      -22.01      
N           71.56       -44.73      -23.18      
C           72.72       -43.05      -21.86      
H           69.53       -48.85      -23.71      
H           70.41       -49.46      -21.54      
H           72.48024    -42.24851   -22.55873   
H           73.78       -43.29      -21.84      
H           72.48534    -42.63757   -20.87871   
C           70.63       -48.47      -21.89      
C           71.53       -46.33      -21.61      
C           71.36       -47.61      -21.1       
H           79.24       5.04        76.56       
H           70.34       -46.74      -24.82      
