612

C           86.83       68.57       2.2         
C           86.07       69.31       3.16        
S           87.92       67.5        3.07        
C           85.61       67.58       9.14        
C           86.51       66.84       8.35        
C           87.09       65.7        8.85        
C           86.8        65.21       10.16       
C           85.96       66.0        10.92       
C           85.36       67.18       10.44       
C           87.1        63.82       10.81       
C           86.08       63.88       11.98       
C           85.72       65.22       12.16       
C           84.94       68.67       8.21        
C           85.63       68.43       6.87        
C           86.61       67.36       6.94        
C           85.8        62.92       12.89       
C           85.03       63.26       14.04       
C           84.7        64.62       14.22       
C           85.02       65.63       13.32       
C           85.44       69.22       5.73        
C           86.22       68.84       4.56        
C           87.1        67.72       4.64        
C           87.34       67.01       5.78        
C           86.67       62.65       9.86        
C           88.55       63.65       11.35       
C           83.45       68.31       8.2         
C           85.16       70.12       8.78        
H           84.57       67.7        10.97       
H           87.77       65.1        8.25        
H           84.8        70.12       5.84        
H           87.83       66.05       5.78        
H           86.0        61.91       12.6        
H           84.65       66.66       13.4        
H           86.96       62.81       8.8         
H           87.08       61.71       10.3        
H           85.60091    62.47757    9.73585     
H           88.86       64.36       12.13       
H           88.7        62.7        11.9        
H           89.26812    63.73366    10.53427    
H           84.66       70.44       9.68        
H           85.05       70.91       8.03        
H           86.18993    70.29852    9.08898     
H           82.97       68.37       9.19        
H           82.81       68.97       7.52        
H           83.29788    67.29586    7.83056     
H           84.85       61.33       15.16       
H           85.37       70.03       2.87        
S           83.74       64.7        15.71       
C           84.49       62.39       15.08       
C           83.71       63.0        15.94       
C           87.37       69.47       -2.11       
C           87.07       68.14       -1.52       
C           87.33       70.36       -1.06       
N           86.89       67.1        -2.36       
N           86.76       66.4        0.01        
S           86.77       65.73       -1.47       
H           87.4        70.87       1.0         
H           87.44       71.41       -1.35       
C           87.31       70.03       0.32        
C           86.93       67.75       -0.16       
C           87.12       68.75       0.82        
C           88.43       72.92       -18.38      
C           88.65       71.64       -17.86      
S           88.3        74.02       -17.0       
C           88.74       70.4        -11.85      
C           88.54       71.71       -12.21      
C           88.43       72.7        -11.15      
C           88.38       72.36       -9.79       
C           88.51       71.01       -9.49       
C           88.68       69.96       -10.47      
C           88.12       73.23       -8.56       
C           88.08       72.22       -7.51       
C           88.29       70.91       -8.07       
C           88.79       69.54       -13.16      
C           88.83       70.64       -14.22      
C           88.59       71.92       -13.65      
C           87.85       72.35       -6.16       
C           87.86       71.2        -5.32       
C           88.22       69.93       -5.86       
C           88.49       69.81       -7.26       
C           88.81       70.5        -15.55      
C           88.71       71.57       -16.42      
C           88.61       72.81       -15.8       
C           88.5        73.05       -14.46      
C           89.27       74.2        -8.35       
C           86.82       73.91       -8.83       
C           90.12       68.76       -13.31      
C           87.67       68.52       -13.16      
H           88.74       68.88       -10.26      
H           88.19       73.72       -11.47      
H           88.86       69.51       -15.91      
H           88.37       74.06       -14.13      
H           87.67       73.32       -5.69       
H           88.55       68.86       -7.74       
H           89.09       74.95       -9.07       
H           89.18       74.73       -7.38       
H           90.26128    73.78521    -8.53279    
H           87.07       74.72       -9.51       
H           86.59       74.31       -7.85       
H           86.04031    73.24912    -9.20871    
H           87.87       67.62       -12.52      
H           87.5        68.25       -14.24      
H           86.71585    68.97966    -12.90231   
H           90.26       68.14       -12.44      
H           89.89       68.05       -14.04      
H           90.94001    69.43984    -13.54129   
H           87.03       71.82       -3.34       
H           88.9        70.8        -18.53      
S           88.07       68.63       -4.7        
C           87.47       71.02       -3.94       
C           87.57       69.79       -3.5        
C           89.31       75.01       -22.08      
C           88.01       75.16       -21.47      
C           90.16       74.08       -21.53      
N           87.07       76.14       -21.71      
N           86.55       74.86       -19.63      
S           85.92       76.1        -20.51      
H           90.51       72.5        -20.12      
H           91.05       73.72       -22.11      
C           89.81       73.35       -20.35      
C           87.69       74.47       -20.22      
C           88.67       73.49       -19.67      
C           96.76       87.57       -29.44      
C           97.41       86.48       -28.98      
S           95.11       87.09       -29.76      
C           94.86       81.22       -27.24      
C           94.04       82.25       -27.68      
C           92.66       82.05       -27.84      
C           92.13       80.95       -27.19      
C           92.94       79.93       -26.6       
C           94.31       80.05       -26.59      
C           90.69       80.64       -26.91      
C           90.79       79.43       -25.99      
C           92.05       78.93       -25.97      
C           96.35       81.68       -27.26      
C           96.17       83.11       -27.78      
C           94.82       83.34       -28.15      
C           89.72       78.74       -25.48      
C           89.88       77.53       -24.72      
C           91.24       77.11       -24.71      
C           92.32       77.69       -25.42      
C           97.05       84.07       -28.07      
C           96.69       85.33       -28.64      
C           95.37       85.49       -28.97      
C           94.44       84.54       -28.73      
C           90.14       81.87       -26.06      
C           89.86       80.26       -28.13      
C           96.89       81.76       -25.75      
C           97.31       80.88       -28.2       
H           95.0        79.38       -26.06      
H           92.0        82.85       -28.19      
H           98.1        83.84       -28.0       
H           93.41       84.8        -28.97      
H           88.7        79.11       -25.63      
H           93.31       77.36       -25.32      
H           90.12       82.74       -26.76      
H           89.04       81.72       -25.86      
H           90.72881    82.08892    -25.16923   
H           90.49       79.55       -28.75      
H           88.93       79.73       -27.83      
H           89.58826    81.09668    -28.7736    
H           97.43       79.9        -27.68      
H           98.24       81.45       -28.1       
H           96.98606    80.88       -29.24075   
H           96.88       80.84       -25.25      
H           97.92       81.97       -25.82      
H           96.33223    82.52252    -25.20635   
H           87.95       77.02       -23.8       
H           98.42       86.47       -28.69      
S           91.37       75.67       -23.76      
C           88.99       76.75       -23.98      
C           89.66       75.82       -23.23      
C           97.64       91.89       -30.05      
C           98.61       91.02       -29.36      
C           96.47       91.25       -30.32      
N           99.8        91.35       -28.88      
N           99.47       88.97       -28.53      
S           100.71      90.06       -28.4       
H           95.31       89.49       -30.36      
H           95.65       91.77       -30.79      
C           96.31       89.8        -30.07      
C           98.41       89.54       -29.18      
C           97.21       88.92       -29.56      
C           93.33       107.73      -29.59      
C           92.67       106.76      -30.31      
S           94.88       107.12      -28.99      
C           94.74       101.06      -30.81      
C           95.67       101.97      -30.21      
C           96.78       101.42      -29.56      
C           97.16       100.09      -29.66      
C           96.4        99.3        -30.53      
C           95.19       99.73       -31.05      
C           98.31       99.25       -29.06      
C           98.11       97.95       -29.8       
C           96.93       97.99       -30.58      
C           93.45       101.71      -31.23      
C           93.81       103.16      -30.81      
C           95.07       103.28      -30.26      
C           98.74       96.79       -29.53      
C           98.13       95.58       -29.92      
C           96.96       95.68       -30.73      
C           96.34       96.82       -31.11      
C           92.94       104.26      -30.9       
C           93.4        105.51      -30.27      
C           94.69       105.56      -29.77      
C           95.58       104.53      -29.82      
C           99.65       99.88       -29.46      
C           98.19       99.01       -27.5       
C           93.32       101.37      -32.79      
C           92.22       101.24      -30.43      
H           94.5        99.01       -31.57      
H           97.35       102.06      -28.86      
H           91.91       104.13      -31.27      
H           96.58       104.63      -29.42      
H           99.57       96.79       -28.81      
H           95.36       96.86       -31.47      
H           99.69       100.92      -29.13      
H           100.47      99.34       -29.03      
H           99.78515    99.91003    -30.54117   
H           97.3        98.44       -27.38      
H           99.05       98.54       -27.22      
H           98.21926    99.9098     -26.8855    
H           91.29       101.14      -31.11      
H           91.98       101.99      -29.72      
H           92.29563    100.31868   -29.85246   
H           92.95       100.36      -32.83      
H           94.3        101.13      -33.37      
H           92.65822    101.93724   -33.44451   
H           99.3        93.89       -28.97      
H           91.7        106.87      -30.69      
S           96.46       94.05       -31.15      
C           98.53       94.2        -29.57      
C           97.7        93.34       -30.19      
C           91.56       111.1       -27.43      
C           92.82       111.26      -27.97      
C           91.04       109.86      -27.45      
N           93.64       112.41      -27.85      
N           94.67       110.49      -29.2       
S           95.0        111.99      -28.65      
H           90.85       107.94      -28.53      
H           90.14       109.63      -26.94      
C           91.55       108.78      -28.31      
C           93.46       110.16      -28.72      
C           92.75       108.89      -28.95      
C           91.49       121.19      -14.44      
C           91.5        119.86      -14.43      
S           91.05       121.83      -16.03      
C           90.48       116.47      -19.43      
C           90.53       117.86      -19.67      
C           90.3        118.31      -20.99      
C           90.34       117.32      -22.01      
C           90.34       115.96      -21.67      
C           90.21       115.56      -20.4       
C           90.59       117.53      -23.54      
C           90.36       116.06      -24.07      
C           90.3        115.19      -22.92      
C           90.82       116.26      -17.98      
C           91.03       117.59      -17.33      
C           90.79       118.56      -18.36      
C           90.57       115.55      -25.3       
C           90.57       114.18      -25.48      
C           90.42       113.29      -24.35      
C           90.18       113.78      -23.06      
C           91.4        117.93      -16.03      
C           91.31       119.3       -15.69      
C           91.03       120.23      -16.68      
C           90.8        119.91      -18.02      
C           89.48       118.51      -24.09      
C           91.95       118.1       -23.96      
C           89.68       115.55      -17.21      
C           92.16       115.5       -17.86      
H           90.3        114.53      -20.2       
H           90.4        119.38      -21.22      
H           91.73       117.19      -15.35      
H           90.59       120.7       -18.72      
H           90.62       116.15      -26.19      
H           90.21       113.11      -22.2       
H           89.69       118.9       -25.09      
H           89.58       119.4       -23.48      
H           88.50015    118.03448   -24.04677   
H           92.72       117.35      -23.84      
H           91.99       118.28      -25.0       
H           92.35774    118.96555   -23.43781   
H           92.59       115.81      -16.88      
H           92.82       116.01      -18.68      
H           92.15299    114.41276   -17.93716   
H           89.42       114.68      -17.73      
H           90.07       115.25      -16.26      
H           88.81026    116.19551   -17.08769   
H           91.22       113.88      -27.68      
H           91.67       119.29      -13.53      
S           90.47       111.66      -24.9       
C           90.9        113.45      -26.72      
C           91.01       112.11      -26.53      
C           92.26       124.21      -11.36      
C           91.7        122.99      -11.01      
C           92.64       124.31      -12.66      
N           91.4        122.46      -9.75       
N           90.86       120.87      -11.46      
S           90.89       120.92      -9.85       
H           92.68       123.42      -14.64      
H           92.96       125.25      -13.1       
C           92.33       123.3       -13.64      
C           91.33       121.98      -11.95      
C           91.65       122.17      -13.31      
C           97.9        134.45      0.27        
C           98.67       133.94      -0.73       
S           96.21       134.12      0.12        
C           96.16       130.91      -5.35       
C           95.27       131.17      -4.23       
C           93.94       130.72      -4.25       
C           93.59       129.84      -5.33       
C           94.5        129.54      -6.34       
C           95.79       130.05      -6.4        
C           92.37       128.96      -5.39       
C           92.61       128.23      -6.73       
C           93.9        128.53      -7.31       
C           97.57       131.55      -5.12       
C           97.33       132.14      -3.69       
C           95.97       132.08      -3.27       
C           91.89       127.26      -7.32       
C           92.41       126.66      -8.52       
C           93.62       127.06      -9.09       
C           94.41       128.04      -8.46       
C           98.32       132.83      -3.01       
C           97.87       133.37      -1.74       
C           96.53       133.27      -1.4        
C           95.51       132.76      -2.16       
C           92.24       127.92      -4.27       
C           91.07       129.8       -5.51       
C           98.67       130.45      -5.07       
C           97.92       132.68      -6.11       
H           96.54       129.61      -7.03       
H           93.25       130.81      -3.38       
H           99.38       132.91      -3.24       
H           94.48       132.81      -1.86       
H           90.96       126.93      -6.86       
H           95.31       128.4       -8.95       
H           91.25       127.35      -4.27       
H           92.11       128.55      -3.36       
H           93.11148    127.27162   -4.17937    
H           90.69       129.59      -4.52       
H           90.48       129.31      -6.26       
H           91.1384     130.86699   -5.72203    
H           98.93       132.96      -6.23       
H           97.27       133.54      -5.89       
H           97.71906    132.46418   -7.15935    
H           98.6        129.78      -5.92       
H           99.66       130.86      -5.0        
H           98.62741    129.81828   -4.18275    
H           91.05       124.91      -8.77       
H           99.69       134.24      -0.9        
S           93.93       126.25      -10.59      
C           91.86       125.51      -9.22       
C           92.51       125.25      -10.4       
C           98.76       136.12      4.25        
C           99.72       135.29      3.61        
C           97.6        136.24      3.51        
N           100.94      134.99      4.11        
N           100.47      134.02      1.9         
S           101.59      133.91      3.07        
H           96.47       135.99      1.78        
H           96.77       136.89      3.82        
C           97.38       135.73      2.19        
C           99.47       134.76      2.29        
C           98.27       135.03      1.5         
C           98.61       144.03      19.1        
C           97.77       144.2       18.06       
S           99.97       142.99      18.62       
C           97.99       141.31      12.76       
C           99.27       141.31      13.43       
C           100.41      140.71      12.8        
C           100.25      140.08      11.55       
C           99.04       140.15      10.89       
C           97.85       140.64      11.54       
C           101.18      139.17      10.77       
C           100.52      139.05      9.39        
C           99.17       139.46      9.61        
C           96.94       142.12      13.51       
C           97.78       142.61      14.72       
C           99.1        142.01      14.74       
C           100.91      138.39      8.23        
C           99.92       137.95      7.35        
C           98.59       138.34      7.65        
C           98.18       139.2       8.63        
C           97.35       143.38      15.76       
C           98.12       143.53      16.88       
C           99.32       142.79      16.99       
C           99.87       142.02      15.91       
C           102.62      139.71      10.68       
C           101.22      137.68      11.3        
C           96.42       143.4       12.68       
C           95.78       141.18      14.0        
H           96.96       140.67      11.0        
H           101.32      140.69      13.37       
H           96.4        143.82      15.62       
H           100.79      141.43      15.93       
H           101.92      138.14      8.07        
H           97.08       139.4       8.74        
H           102.96      140.04      11.65       
H           103.35      138.98      10.28       
H           102.62698   140.59601   10.04514    
H           100.15      137.25      11.16       
H           101.95      137.04      10.81       
H           101.5851    137.61681   12.32509    
H           95.17       141.65      14.77       
H           96.21       140.36      14.56       
H           95.08179    140.862     13.22574    
H           96.38       143.05      11.6        
H           95.42       143.7       12.83       
H           97.08185    144.26603   12.68704    
H           101.01      136.6       6.07        
H           96.85       144.71      18.17       
S           97.56       137.64      6.41        
C           100.02      137.06      6.28        
C           98.92       136.88      5.5         
C           98.47       145.58      23.21       
C           97.85       146.27      22.15       
C           99.16       144.49      22.82       
N           97.28       147.49      22.26       
N           97.32       146.57      19.88       
S           96.77       147.88      20.71       
H           99.74       143.0       21.39       
H           99.6        143.9       23.6        
C           99.16       143.96      21.53       
C           97.9        145.76      20.79       
C           98.59       144.53      20.45       
C           93.92       146.19      39.17       
C           93.29       146.83      38.11       
S           95.47       145.61      38.56       
C           95.69       147.72      32.56       
C           96.55       147.06      33.48       
C           97.76       146.49      33.0        
C           97.97       146.62      31.6        
C           97.18       147.32      30.72       
C           96.05       147.92      31.24       
C           98.93       145.72      30.81       
C           98.75       146.19      29.36       
C           97.66       147.09      29.33       
C           94.41       148.19      33.28       
C           94.64       147.7       34.7        
C           95.9        146.94      34.77       
C           99.28       145.59      28.22       
C           98.74       145.92      26.99       
C           97.64       146.81      27.0        
C           97.1        147.37      28.11       
C           93.82       147.78      35.8        
C           94.16       147.0       36.96       
C           95.36       146.34      37.0        
C           96.24       146.24      35.92       
C           100.43      146.07      31.15       
C           98.71       144.2       30.94       
C           94.24       149.72      33.15       
C           93.07       147.47      32.79       
H           95.37       148.46      30.69       
H           98.41       145.88      33.66       
H           92.87       148.21      35.7        
H           97.14       145.68      36.0        
H           100.09      144.89      28.33       
H           96.28       148.02      28.14       
H           101.11      145.17      30.96       
H           100.56      146.3       32.21       
H           100.75509   146.89356   30.51427    
H           99.0        143.97      31.96       
H           99.36       143.61      30.3        
H           97.65517    143.94167   30.84672    
H           92.44       148.09      32.22       
H           92.61       147.17      33.75       
H           93.34891    146.57605   32.23218    
H           93.45       149.92      33.86       
H           93.78       149.97      32.14       
H           95.16193    150.25081   33.38747    
H           99.86       144.82      25.42       
H           92.29       147.34      38.17       
S           97.11       146.97      25.35       
C           99.09       145.51      25.64       
C           98.41       146.03      24.61       
C           92.32       144.12      42.71       
C           91.44       144.87      41.8        
C           93.67       144.25      42.34       
N           90.13       144.88      41.89       
N           90.94       146.07      39.88       
S           89.52       145.55      40.51       
H           95.22       144.94      41.08       
H           94.43       143.8       42.97       
C           94.16       144.98      41.21       
C           91.93       145.58      40.62       
C           93.35       145.64      40.37       
C           85.62       135.56      55.02       
C           85.19       136.8       54.73       
S           87.2        135.26      54.32       
C           87.79       140.36      50.61       
C           88.49       139.15      50.94       
C           89.64       138.7       50.31       
C           90.06       139.53      49.28       
C           89.4        140.71      48.89       
C           88.28       141.14      49.56       
C           91.52       139.5       48.68       
C           91.29       140.62      47.65       
C           90.01       141.28      47.74       
C           86.47       140.51      51.43       
C           86.66       139.3       52.34       
C           87.77       138.48      52.0        
C           92.06       140.87      46.49       
C           91.69       141.92      45.6        
C           90.54       142.61      45.9        
C           89.71       142.35      47.0        
C           85.75       138.82      53.27       
C           85.95       137.51      53.73       
C           87.1        136.77      53.42       
C           88.03       137.24      52.54       
C           92.6        139.86      49.79       
C           91.87       138.11      48.06       
C           86.7        141.91      52.13       
C           85.21       140.4       50.55       
H           87.74       142.06      49.29       
H           90.13       137.8       50.5        
H           84.93       139.45      53.61       
H           88.88       136.64      52.21       
H           92.92       140.29      46.17       
H           88.75       142.87      47.08       
H           92.73       139.16      50.57       
H           92.24       140.75      50.28       
H           93.59344    140.17332   49.46904    
H           92.18       137.41      48.96       
H           92.68       138.11      47.35       
H           90.99907    137.65712   47.58621    
H           84.91       141.29      50.0        
H           84.41       140.16      51.32       
H           85.24551    139.56192   49.85397    
H           86.81       142.66      51.31       
H           87.58       142.04      52.77       
H           85.86195    142.21875   52.75486    
H           93.39       141.93      44.18       
H           84.32       137.17      55.23       
S           90.29       143.8       44.69       
C           92.47       142.4       44.48       
C           91.82       143.4       43.84       
C           83.9        132.31      57.44       
C           83.08       133.32      56.92       
C           85.24       132.48      57.08       
N           81.78       133.39      57.21       
N           82.57       135.39      55.98       
S           81.18       134.78      56.57       
H           86.85       133.49      56.11       
H           85.89       131.63      57.19       
C           85.74       133.52      56.28       
C           83.59       134.49      56.21       
C           84.99       134.62      55.87       
C           80.13       116.84      61.66       
C           80.77       117.27      60.52       
S           79.6        118.28      62.59       
C           81.72       123.1       59.21       
C           80.91       122.91      60.38       
C           80.56       124.06      61.26       
C           81.18       125.25      60.87       
C           81.99       125.4       59.7        
C           82.22       124.32      58.9        
C           81.24       126.59      61.7        
C           81.87       127.51      60.63       
C           82.43       126.77      59.54       
C           82.01       121.86      58.41       
C           81.18       120.84      59.25       
C           80.57       121.46      60.44       
C           82.01       128.85      60.64       
C           82.71       129.42      59.61       
C           83.37       128.65      58.57       
C           83.24       127.29      58.58       
C           81.22       119.48      59.17       
C           80.7        118.68      60.25       
C           80.04       119.34      61.31       
C           79.97       120.69      61.46       
C           79.88       127.11      62.18       
C           82.21       126.56      62.89       
C           81.38       122.28      57.02       
C           83.52       121.66      58.33       
H           82.95       124.51      58.09       
H           79.89       124.01      62.14       
H           81.61       119.0       58.31       
H           79.52       121.21      62.28       
H           81.61       129.44      61.44       
H           83.63       126.64      57.83       
H           79.58       126.55      63.05       
H           80.06       128.14      62.45       
H           78.99914    127.12366   61.53813    
H           83.18       126.67      62.42       
H           81.91       127.37      63.53       
H           82.21       125.64658   63.48478    
H           84.05       122.43      57.81       
H           83.99       121.8       59.35       
H           83.80033    120.68962   57.92028    
H           82.07       122.98      56.59       
H           80.43       122.68      57.22       
H           81.10235    121.47483   56.33977    
H           82.37       131.72      59.8        
H           81.2        116.57      59.82       
S           84.03       129.62      57.29       
C           82.82       130.85      59.26       
C           83.52       131.08      58.17       
C           79.39       112.75      63.1        
C           80.69       113.23      62.75       
C           78.4        113.71      62.83       
N           81.8        112.57      62.98       
N           82.16       114.87      62.18       
S           83.05       113.58      62.67       
H           77.72       115.66      62.1        
H           77.46       113.48      63.28       
C           78.58       115.04      62.29       
C           80.9        114.57      62.28       
C           79.87       115.48      62.07       
H           83.41       62.55       16.86       
H           79.14       111.79      63.47       
