612

C           26.79       79.46       24.04       
C           27.72       79.46       23.07       
S           27.46       79.05       25.58       
C           33.59       78.25       24.05       
C           32.89       78.58       25.25       
C           33.48       78.68       26.47       
C           34.88       78.46       26.51       
C           35.55       78.16       25.3        
C           34.91       77.89       24.09       
C           35.89       78.99       27.54       
C           37.17       78.81       26.73       
C           36.93       78.3        25.44       
C           32.68       78.32       22.84       
C           31.41       78.9        23.52       
C           31.47       78.78       24.93       
C           38.45       79.13       27.1        
C           39.51       78.98       26.25       
C           39.27       78.31       25.04       
C           37.99       77.98       24.61       
C           30.24       79.16       22.86       
C           29.07       79.28       23.55       
C           29.15       79.06       24.94       
C           30.36       78.87       25.64       
C           35.56       80.48       27.86       
C           35.87       78.01       28.79       
C           33.19       79.24       21.76       
C           32.33       76.87       22.31       
H           35.54       77.73       23.21       
H           32.95       78.84       27.39       
H           30.28       79.16       21.78       
H           30.39       78.81       26.71       
H           38.65       79.75       27.97       
H           37.81       77.43       23.71       
H           34.67       80.57       28.44       
H           36.36       80.82       28.57       
H           35.45226    81.11925    26.98373    
H           36.11       77.03       28.44       
H           36.65       78.25       29.55       
H           34.95992    77.98833    29.38949    
H           31.49       76.97       21.57       
H           31.83       76.27       23.1        
H           33.14623    76.31153    21.85177    
H           34.15       78.99       21.29       
H           32.56       79.22       20.85       
H           33.2624     80.27534    22.09305    
H           41.24       79.9        27.18       
H           27.49       79.72       22.01       
S           40.65       78.12       24.04       
C           40.87       79.38       26.31       
C           41.65       78.92       25.27       
C           22.33       79.49       23.78       
C           23.12       80.26       22.91       
C           23.1        78.8        24.69       
N           22.61       81.07       22.01       
N           25.08       81.09       21.93       
S           23.83       81.83       21.22       
H           25.02       78.1        25.42       
H           22.62       78.2        25.5        
C           24.54       78.76       24.71       
C           24.56       80.25       22.87       
C           25.33       79.53       23.93       
C           5.86        76.49       23.73       
C           6.79        75.88       24.49       
S           6.74        77.71       22.8        
C           12.74       77.33       24.48       
C           11.92       78.25       23.76       
C           12.49       79.29       23.06       
C           13.86       79.46       23.14       
C           14.64       78.46       23.76       
C           14.05       77.42       24.48       
C           14.78       80.57       22.68       
C           16.14       79.93       22.89       
C           16.05       78.73       23.64       
C           11.89       76.31       25.27       
C           10.56       76.59       24.71       
C           10.57       77.79       23.91       
C           17.4        80.51       22.68       
C           18.54       79.86       23.21       
C           18.44       78.61       23.92       
C           17.17       78.07       24.15       
C           9.35        75.94       24.91       
C           8.17        76.41       24.43       
C           8.28        77.52       23.58       
C           9.44        78.31       23.29       
C           14.61       80.94       21.19       
C           14.77       81.9        23.47       
C           12.36       74.81       24.99       
C           11.94       76.62       26.81       
H           14.64       76.69       24.98       
H           11.88       80.08       22.59       
H           9.27        75.16       25.66       
H           9.39        79.22       22.61       
H           17.5        81.31       22.03       
H           17.1        77.08       24.59       
H           13.61       81.44       21.07       
H           15.37       81.61       20.82       
H           14.61723    80.05013    20.56058    
H           15.64       81.85       24.07       
H           14.94       82.78       22.84       
H           13.86148    82.07305    24.04684    
H           12.87       76.24       27.28       
H           11.16       76.04       27.34       
H           11.76658    77.67441    27.02504    
H           13.23       74.61       25.62       
H           11.63       74.17       25.41       
H           12.50507    74.56338    23.93822    
H           20.24       81.08       22.55       
H           6.62        74.99       25.05       
S           19.95       78.0        24.41       
C           19.94       80.21       23.11       
C           20.87       79.42       23.77       
C           1.72        75.62       22.18       
C           2.14        75.29       23.53       
C           2.72        76.21       21.45       
N           1.39        74.63       24.44       
N           3.55        75.27       25.38       
S           2.25        74.34       25.75       
H           4.77        76.94       21.37       
H           2.54        76.35       20.42       
C           4.03        76.54       22.03       
C           3.41        75.68       24.06       
C           4.42        76.33       23.33       
C           -12.72      79.88       16.31       
C           -11.53      80.27       15.76       
S           -12.54      78.59       17.46       
C           -6.25       77.81       17.44       
C           -7.38       77.25       17.99       
C           -7.29       76.25       18.95       
C           -6.03       75.85       19.34       
C           -4.91       76.43       18.82       
C           -4.98       77.4        17.8        
C           -5.61       74.98       20.49       
C           -4.08       75.03       20.44       
C           -3.67       75.88       19.39       
C           -6.63       78.67       16.22       
C           -8.12       78.86       16.48       
C           -8.57       77.92       17.45       
C           -3.19       74.53       21.28       
C           -1.84       75.02       21.14       
C           -1.5        75.91       20.11       
C           -2.39       76.36       19.18       
C           -9.12       79.65       15.86       
C           -10.45      79.51       16.26       
C           -10.83      78.49       17.17       
C           -9.88       77.71       17.76       
C           -6.14       75.65       21.75       
C           -6.17       73.55       20.38       
C           -6.09       80.08       16.2        
C           -6.53       77.91       14.87       
H           -4.04       77.83       17.35       
H           -8.26       75.82       19.33       
H           -8.9        80.34       15.11       
H           -10.18      77.0        18.54       
H           -3.53       73.89       22.03       
H           -2.21       77.1        18.39       
H           -5.99       74.94       22.47       
H           -7.18       75.84       21.77       
H           -5.65487    76.57808    22.05233    
H           -7.2        73.41       20.84       
H           -5.45       72.92       20.95       
H           -6.26378    73.18933    19.35569    
H           -6.73       78.6        14.06       
H           -7.19       77.1        14.69       
H           -5.532      77.56287    14.60242    
H           -4.98       80.31       16.11       
H           -6.6        80.72       15.42       
H           -6.32292    80.58223    17.13895    
H           -0.64       74.14       22.85       
H           -11.48      81.07       15.1        
S           0.13        76.44       20.21       
C           -0.68       74.78       21.99       
C           0.45        75.4        21.58       
C           -16.59      81.96       16.54       
C           -15.62      82.24       15.49       
C           -16.19      80.97       17.37       
N           -15.81      83.18       14.47       
N           -13.62      81.87       14.29       
S           -14.46      83.02       13.48       
H           -14.86      79.52       17.96       
H           -16.81      80.67       18.19       
C           -14.93      80.31       17.24       
C           -14.37      81.56       15.35       
C           -14.04      80.51       16.25       
C           -27.05      92.12       24.29       
C           -25.66      92.11       24.42       
S           -27.46      90.96       23.0        
C           -22.03      88.75       20.88       
C           -23.36      88.49       20.81       
C           -23.89      87.43       20.05       
C           -22.94      86.61       19.37       
C           -21.55      87.01       19.41       
C           -21.04      88.09       20.14       
C           -23.15      85.2        18.75       
C           -21.68      84.89       18.31       
C           -20.81      85.99       18.63       
C           -21.71      89.76       22.01       
C           -23.11      90.13       22.46       
C           -24.05      89.4        21.7        
C           -21.19      83.72       17.74       
C           -19.81      83.58       17.52       
C           -18.93      84.65       17.91       
C           -19.5       85.86       18.47       
C           -23.53      90.97       23.44       
C           -24.89      91.11       23.6        
C           -25.86      90.35       22.88       
C           -25.41      89.52       21.83       
C           -23.6       84.16       19.81       
C           -24.06      85.25       17.51       
C           -20.92      89.1        23.19       
C           -21.01      90.97       21.36       
H           -19.97      88.38       20.29       
H           -24.9       87.09       20.24       
H           -22.87      91.68       23.99       
H           -26.12      89.04       21.11       
H           -21.77      82.8        17.6        
H           -18.8       86.66       18.76       
H           -24.5       84.63       20.27       
H           -23.79      83.33       19.14       
H           -22.8194    83.9738     20.54763    
H           -23.81      86.02       16.85       
H           -23.94      84.29       16.93       
H           -25.12706   85.44266    17.62115    
H           -19.99      90.62       21.06       
H           -21.67      91.38       20.56       
H           -20.79426   91.74946    22.09075    
H           -20.9       89.67       24.02       
H           -19.89      89.15       22.82       
H           -21.23673   88.07617    23.38887    
H           -19.45      81.59       16.68       
H           -25.16      92.88       25.0        
S           -17.26      84.3        17.59       
C           -19.07      82.54       16.99       
C           -17.77      82.8        16.9        
C           -30.19      94.64       25.92       
C           -28.86      95.16       25.83       
C           -30.35      93.38       25.47       
N           -28.44      96.35       26.29       
N           -26.6       94.95       25.3        
S           -26.86      96.37       26.09       
H           -29.62      91.59       24.64       
H           -31.37      93.01       25.57       
C           -29.3       92.54       24.93       
C           -27.79      94.33       25.22       
C           -28.06      92.99       24.76       
C           -42.28      102.37      34.2        
C           -42.52      101.9       32.99       
S           -40.6       102.29      34.68       
C           -38.23      98.85       29.92       
C           -37.79      99.45       31.12       
C           -36.57      99.28       31.66       
C           -35.64      98.6        30.96       
C           -35.96      98.13       29.63       
C           -37.29      98.13       29.2        
C           -34.16      98.23       31.21       
C           -33.73      97.68       29.86       
C           -34.84      97.46       29.04       
C           -39.73      98.98       29.78       
C           -40.02      100.06      30.79       
C           -38.93      100.16      31.71       
C           -32.41      97.35       29.45       
C           -32.28      96.62       28.25       
C           -33.41      96.24       27.53       
C           -34.68      96.7        27.86       
C           -41.24      100.65      31.11       
C           -41.36      101.25      32.37       
C           -40.23      101.35      33.25       
C           -39.01      100.79      32.87       
C           -33.28      99.52       31.47       
C           -33.95      97.15       32.3        
C           -39.97      99.66       28.36       
C           -40.46      97.61       29.92       
H           -37.54      97.58       28.34       
H           -36.27      99.8        32.54       
H           -42.07      100.56      30.42       
H           -38.14      100.92      33.47       
H           -31.5       97.62       30.09       
H           -35.52      96.29       27.31       
H           -32.28      99.37       31.82       
H           -33.75      99.96       32.37       
H           -33.43826   100.28974   30.71465    
H           -33.52      97.62       33.19       
H           -33.21      96.46       31.92       
H           -34.87152   96.64281    32.58574    
H           -40.59      97.13       29.01       
H           -41.39      97.88       30.33       
H           -39.91905   96.92284    30.57061    
H           -40.92      99.6        27.93       
H           -39.39      99.09       27.64       
H           -39.6495    100.69984   28.2959     
H           -30.08      96.29       28.13       
H           -43.56      101.88      32.57       
S           -32.93      95.24       26.18       
C           -31.04      96.1        27.69       
C           -31.23      95.32       26.63       
C           -44.73      104.53      37.21       
C           -44.9       104.75      35.81       
C           -43.66      103.75      37.52       
N           -45.74      105.63      35.24       
N           -44.24      104.49      33.56       
S           -45.38      105.65      33.63       
H           -42.06      102.33      36.78       
H           -43.37      103.58      38.56       
C           -42.85      103.09      36.46       
C           -44.1       104.06      34.81       
C           -43.03      103.14      35.12       
C           -49.46      115.74      48.72       
C           -49.12      116.05      47.47       
S           -49.33      114.0       48.91       
C           -47.67      111.96      43.25       
C           -47.86      111.43      44.56       
C           -47.6       110.06      44.83       
C           -47.38      109.2       43.77       
C           -47.28      109.69      42.43       
C           -47.35      111.08      42.21       
C           -47.01      107.68      43.84       
C           -46.73      107.39      42.36       
C           -46.89      108.62      41.52       
C           -47.7       113.48      43.22       
C           -47.98      113.74      44.68       
C           -48.07      112.55      45.45       
C           -46.36      106.25      41.76       
C           -46.05      106.24      40.38       
C           -46.28      107.45      39.52       
C           -46.72      108.67      40.11       
C           -48.41      114.95      45.27       
C           -48.83      114.9       46.63       
C           -48.79      113.67      47.3        
C           -48.54      112.45      46.75       
C           -45.86      107.33      44.74       
C           -48.3       106.94      44.24       
C           -46.38      114.29      42.84       
C           -48.95      113.95      42.52       
H           -47.13      111.52      41.18       
H           -47.53      109.71      45.81       
H           -48.35      115.91      44.69       
H           -48.6       111.49      47.28       
H           -46.21      105.43      42.35       
H           -46.8       109.52      39.51       
H           -46.05      107.8       45.73       
H           -45.76      106.19      44.81       
H           -44.95465   107.83614   44.40495    
H           -48.96      107.35      43.54       
H           -48.28      105.83      44.01       
H           -48.64362   107.0259    45.27085    
H           -49.2       114.99      42.89       
H           -49.73      113.36      42.9        
H           -48.86984   113.89899   41.43415    
H           -46.28      114.06      41.77       
H           -46.5       115.38      42.91       
H           -45.48266   113.9297    43.34306    
H           -45.19      104.27      40.05       
H           -49.08      117.06      47.11       
S           -45.83      107.09      37.85       
C           -45.48      105.21      39.59       
C           -45.33      105.49      38.28       
C           -50.34      118.12      52.34       
C           -50.34      118.8       51.05       
C           -50.21      116.73      52.28       
N           -50.5       120.13      50.88       
N           -50.1       118.94      48.72       
S           -50.23      120.5       49.27       
H           -49.68      114.96      51.17       
H           -50.16      116.13      53.2        
C           -49.89      116.07      51.07       
C           -50.08      118.08      49.77       
C           -49.86      116.67      49.8        
C           -46.66      118.98      67.83       
C           -45.92      119.6       66.91       
S           -48.37      118.82      67.26       
C           -47.66      120.71      61.24       
C           -48.73      120.32      62.11       
C           -49.98      120.05      61.66       
C           -50.24      120.17      60.31       
C           -49.2       120.58      59.42       
C           -47.91      120.84      59.9        
C           -51.46      119.68      59.56       
C           -50.94      119.75      58.11       
C           -49.63      120.29      58.01       
C           -46.37      120.94      62.04       
C           -46.8       120.6       63.41       
C           -48.2       120.17      63.44       
C           -51.61      119.31      56.98       
C           -50.97      119.31      55.74       
C           -49.68      119.86      55.72       
C           -48.99      120.35      56.78       
C           -46.07      120.43      64.52       
C           -46.66      119.95      65.7        
C           -48.01      119.51      65.73       
C           -48.85      119.69      64.61       
C           -51.91      118.24      59.86       
C           -52.6       120.76      59.72       
C           -45.23      120.03      61.5        
C           -45.99      122.4       62.16       
H           -47.08      120.98      59.25       
H           -50.77      119.79      62.4        
H           -45.0       120.73      64.62       
H           -49.89      119.31      64.8        
H           -52.62      118.85      57.16       
H           -48.0       120.75      56.72       
H           -51.89      118.14      60.99       
H           -52.91      118.01      59.38       
H           -51.15014   117.50828   59.5856     
H           -52.22      121.66      59.27       
H           -53.42      120.44      59.13       
H           -52.90319   121.04204   60.72828    
H           -45.22      122.46      62.85       
H           -46.75      122.98      62.5        
H           -45.58121   122.82958   61.24542    
H           -44.26      120.46      61.67       
H           -45.32      120.08      60.43       
H           -45.23693   119.00384   61.86748    
H           -52.17      118.05      54.48       
H           -44.86      119.77      66.96       
S           -49.06      119.81      54.05       
C           -51.31      118.72      54.55       
C           -50.46      118.92      53.54       
C           -45.51      116.47      71.31       
C           -44.52      116.87      70.32       
C           -46.74      116.87      71.02       
N           -43.27      116.41      70.15       
N           -43.79      118.03      68.37       
S           -42.48      117.28      68.98       
H           -48.09      117.88      69.63       
H           -47.52      116.84      71.77       
C           -47.09      117.65      69.85       
C           -44.86      117.74      69.17       
C           -46.21      118.1       68.92       
C           -43.52      103.08      81.14       
C           -42.73      103.38      80.01       
S           -44.79      104.23      81.38       
C           -43.76      108.27      76.49       
C           -44.61      108.21      77.6        
C           -45.67      109.18      77.8        
C           -45.73      110.27      76.94       
C           -44.87      110.34      75.83       
C           -43.84      109.33      75.55       
C           -46.58      111.58      77.03       
C           -46.09      112.32      75.86       
C           -45.13      111.59      75.14       
C           -42.7       107.15      76.49       
C           -43.13      106.34      77.74       
C           -44.31      106.96      78.37       
C           -46.49      113.55      75.37       
C           -45.8       114.12      74.22       
C           -44.74      113.37      73.61       
C           -44.42      112.13      74.02       
C           -42.56      105.25      78.32       
C           -43.2       104.58      79.37       
C           -44.36      105.12      79.91       
C           -44.95      106.36      79.42       
C           -48.09      111.35      76.91       
C           -46.32      112.42      78.3        
C           -42.66      106.3       75.22       
C           -41.3       107.7       76.77       
H           -43.25      109.41      74.69       
H           -46.25      109.18      78.67       
H           -41.62      104.86      77.92       
H           -45.77      106.83      79.95       
H           -47.23      114.1       75.88       
H           -43.76      111.57      73.41       
H           -48.49      110.96      77.84       
H           -48.6       112.35      76.78       
H           -48.43765   110.77532   76.05152    
H           -45.26      112.77      78.23       
H           -47.0       113.31      78.19       
H           -46.55476   112.00571   79.28048    
H           -40.8       107.86      75.79       
H           -40.66      107.15      77.41       
H           -41.3       108.67774   77.25179    
H           -42.53      106.88      74.29       
H           -41.84      105.54      75.39       
H           -43.4917    105.60808   75.08721    
H           -46.78      116.06      73.85       
H           -41.86      102.86      79.78       
S           -44.12      114.24      72.25       
C           -45.97      115.41      73.57       
C           -45.21      115.61      72.43       
C           -42.12      100.71      84.52       
C           -43.46      101.08      84.44       
C           -41.33      101.11      83.52       
N           -44.43      100.86      85.32       
N           -45.26      101.98      83.32       
S           -45.88      101.39      84.69       
H           -40.92      102.0       81.66       
H           -40.25      100.99      83.56       
C           -41.71      101.89      82.43       
C           -43.89      101.82      83.33       
C           -43.04      102.27      82.29       
C           -37.65      87.48       92.38       
C           -37.15      87.93       91.25       
S           -38.6       88.71       93.18       
C           -37.96      93.7        89.26       
C           -38.66      93.47       90.44       
C           -39.43      94.42       91.09       
C           -39.56      95.62       90.55       
C           -38.84      95.89       89.29       
C           -38.1       94.95       88.64       
C           -40.69      96.59       90.68       
C           -40.54      97.51       89.52       
C           -39.4       97.14       88.79       
C           -37.35      92.41       88.64       
C           -37.53      91.42       89.75       
C           -38.36      92.04       90.8        
C           -41.35      98.49       89.03       
C           -41.09      99.07       87.73       
C           -39.97      98.66       87.0        
C           -39.03      97.77       87.57       
C           -37.24      90.02       89.8        
C           -37.47      89.34       91.03       
C           -38.24      90.0        92.04       
C           -38.74      91.26       91.92       
C           -42.08      95.92       90.59       
C           -40.59      97.5        91.92       
C           -38.0       92.01       87.35       
C           -35.82      92.52       88.42       
H           -37.66      95.08       87.7        
H           -40.01      94.12       91.99       
H           -36.52      89.53       89.11       
H           -39.35      91.78       92.68       
H           -42.34      98.67       89.5        
H           -38.14      97.42       87.01       
H           -42.16      95.24       91.42       
H           -42.85      96.72       90.7        
H           -42.34496   95.41873    89.65907    
H           -39.85      98.22       91.76       
H           -41.45      98.12       92.08       
H           -40.39834   96.89663    92.80731    
H           -35.44      93.1        87.63       
H           -35.48      91.52       88.15       
H           -35.29435   92.85843    89.31289    
H           -37.82      92.87       86.62       
H           -37.55      91.13       86.9        
H           -39.06983   91.82332    87.44334    
H           -42.72      100.39      87.33       
H           -36.71      87.22       90.51       
S           -39.86      99.39       85.41       
C           -41.87      99.92       86.96       
C           -41.48      100.04      85.65       
C           -38.19      83.47       94.11       
C           -37.7       83.63       92.81       
C           -38.27      84.62       94.78       
N           -37.49      82.6        91.94       
N           -37.01      84.83       90.88       
S           -36.85      83.17       90.55       
H           -38.24      86.72       94.93       
H           -38.51      84.5        95.82       
C           -38.1       85.93       94.24       
C           -37.41      84.95       92.22       
C           -37.69      86.15       92.96       
C           -43.01      69.72       102.19      
C           -42.51      70.88       102.65      
S           -43.1       69.81       100.41      
C           -41.1       75.85       99.64       
C           -41.73      74.86       98.8        
C           -41.88      75.07       97.4        
C           -41.39      76.21       96.83       
C           -40.81      77.21       97.63       
C           -40.76      77.06       99.04       
C           -41.4       76.69       95.37       
C           -40.57      77.99       95.48       
C           -40.28      78.34       96.84       
C           -40.94      75.41       101.05      
C           -41.57      74.03       100.97      
C           -41.99      73.72       99.65       
C           -40.04      78.79       94.44       
C           -39.44      80.02       94.81       
C           -39.22      80.29       96.16       
C           -39.62      79.49       97.21       
C           -41.77      73.15       101.99      
C           -42.23      71.88       101.7       
C           -42.58      71.53       100.4       
C           -42.37      72.4        99.34       
C           -40.64      75.73       94.42       
C           -42.66      77.24       94.76       
C           -39.44      75.37       101.45      
C           -41.76      76.32       101.94      
H           -40.18      77.74       99.64       
H           -42.25      74.24       96.81       
H           -41.27      73.23       102.92      
H           -42.78      72.13       98.36       
H           -40.25      78.49       93.41       
H           -39.51      79.93       98.21       
H           -41.22      74.87       94.14       
H           -40.56      76.24       93.42       
H           -39.7275    75.34201    94.87266    
H           -42.77      78.2        95.28       
H           -42.53      77.47       93.72       
H           -43.56156   76.6554     94.94313    
H           -41.34      77.3        102.11      
H           -41.99      75.85       102.87      
H           -42.76417   76.5096     101.5608    
H           -39.1       76.38       101.44      
H           -39.4       74.88       102.45      
H           -38.78976   74.78478    100.79976   
H           -39.2       81.03       92.9        
H           -42.44      71.01       103.71      
S           -38.59      81.93       96.34       
C           -39.05      81.05       93.97       
C           -38.69      82.18       94.63       
C           -44.04      65.76       104.07      
C           -43.38      66.81       104.76      
C           -44.28      66.06       102.74      
N           -43.12      66.61       106.07      
N           -42.51      68.85       105.16      
S           -42.51      68.04       106.6       
H           -44.25      67.42       101.08      
H           -44.82      65.36       102.12      
C           -43.91      67.31       102.13      
C           -43.04      68.06       104.2       
C           -43.29      68.38       102.76      
H           42.72       78.9        25.2        
H           -44.08      64.73       104.49      
