612

C           23.72       99.1        11.15       
C           24.81       98.43       11.12       
S           23.2        99.69       12.72       
C           27.56       96.77       16.3        
C           26.5        97.65       16.4        
C           26.0        98.07       17.63       
C           26.51       97.49       18.79       
C           27.59       96.57       18.67       
C           28.1        96.18       17.45       
C           26.54       98.03       20.26       
C           27.25       96.81       20.96       
C           27.87       96.03       19.98       
C           27.73       96.24       14.8        
C           26.88       97.33       14.09       
C           26.06       98.05       15.02       
C           27.4        96.54       22.26       
C           28.27       95.49       22.67       
C           28.97       94.72       21.72       
C           28.79       95.03       20.35       
C           26.61       97.55       12.75       
C           25.44       98.29       12.4        
C           24.64       98.9        13.37       
C           24.99       98.81       14.72       
C           27.32       99.38       20.4        
C           25.08       98.21       20.76       
C           29.2        96.23       14.29       
C           27.01       94.85       14.69       
H           28.83       95.36       17.27       
H           25.25       98.87       17.62       
H           27.11       96.97       11.97       
H           24.35       99.21       15.49       
H           26.84       97.09       22.98       
H           29.36       94.49       19.62       
H           26.77       100.3       20.33       
H           27.91       99.43       19.5        
H           27.97502    99.47461    21.26608    
H           24.54       98.91       20.1        
H           25.13       98.7        21.71       
H           24.55808    97.25911    20.86724    
H           27.29       94.33       15.54       
H           25.91       95.08       14.83       
H           27.1716     94.35114    13.73443    
H           29.92       95.59       14.78       
H           29.2        95.82       13.28       
H           29.67746    97.20663    14.36958    
H           28.36       95.68       24.91       
H           25.29       98.17       10.25       
S           30.18       93.67       22.44       
C           28.75       95.16       23.99       
C           29.64       94.11       24.1        
C           21.98       101.48      7.8         
C           23.45       101.27      7.94        
C           21.24       100.86      8.76        
N           24.29       101.7       7.03        
N           25.45       100.33      8.86        
S           25.79       101.18      7.48        
H           21.32       99.48       10.44       
H           20.14       100.75      8.65        
C           21.96       100.09      9.85        
C           24.13       100.48      8.99        
C           23.28       99.92       10.01       
C           13.68       112.94      -0.88       
C           13.24       112.41      0.32        
S           15.32       112.37      -1.24       
C           16.41       108.46      3.58        
C           17.07       108.97      2.5         
C           18.35       108.53      2.21        
C           18.96       107.54      2.97        
C           18.28       106.99      4.05        
C           16.98       107.48      4.4         
C           20.11       106.66      2.59        
C           20.17       105.68      3.8         
C           19.04       105.85      4.59        
C           15.12       109.24      3.89        
C           14.99       110.02      2.57        
C           16.19       109.9       1.8         
C           21.15       104.74      4.14        
C           20.82       103.89      5.15        
C           19.7        104.13      5.98        
C           18.78       105.16      5.74        
C           14.01       110.89      2.12        
C           14.18       111.56      0.95        
C           15.4        111.43      0.23        
C           16.44       110.7       0.7         
C           19.77       106.01      1.24        
C           21.4        107.5       2.59        
C           13.97       108.22      4.05        
C           15.24       110.25      5.08        
H           16.4        107.1       5.17        
H           18.88       109.0       1.4         
H           13.07       110.92      2.66        
H           17.41       110.68      0.23        
H           22.06       104.6       3.61        
H           17.9        105.29      6.29        
H           19.85       106.8       0.49        
H           18.8        105.59      1.12        
H           20.49323    105.24381   0.96073     
H           21.36       108.31      1.88        
H           22.18       106.88      2.19        
H           21.66208    107.96749   3.53914     
H           15.58       109.73      6.01        
H           16.0        110.95      4.81        
H           14.34317    110.85267   5.22349     
H           14.18       107.7       5.0         
H           13.04       108.77      4.16        
H           13.83393    107.58263   3.1763      
H           22.73       102.84      5.24        
H           12.19       112.58      0.68        
S           19.81       103.03      7.34        
C           21.75       103.03      5.73        
C           21.3        102.29      6.81        
C           11.32       114.28      -4.34       
C           12.63       114.73      -4.17       
C           10.85       113.47      -3.29       
N           13.31       115.59      -4.97       
N           14.61       114.97      -2.96       
S           14.71       116.01      -4.27       
H           11.05       112.39      -1.36       
H           9.79        113.1       -3.3        
C           11.54       113.09      -2.11       
C           13.36       114.35      -3.02       
C           12.83       113.53      -1.94       
C           0.98        113.39      -17.23      
C           0.53        113.15      -15.95      
S           2.59        113.91      -17.19      
C           4.16        113.87      -11.0       
C           4.76        114.15      -12.28      
C           6.1         114.49      -12.45      
C           6.81        114.62      -11.26      
C           6.28        114.25      -10.03      
C           4.99        113.87      -9.89       
C           8.28        115.04      -11.12      
C           8.51        114.6       -9.72       
C           7.35        114.2       -9.06       
C           2.61        113.65      -11.09      
C           2.39        113.87      -12.63      
C           3.71        114.05      -13.25      
C           9.66        114.87      -9.0        
C           9.64        114.7       -7.59       
C           8.49        114.21      -6.98       
C           7.34        113.94      -7.66       
C           1.37        113.5       -13.49      
C           1.45        113.55      -14.89      
C           2.75        113.94      -15.42      
C           3.89        114.17      -14.64      
C           9.16        114.26      -12.14      
C           8.54        116.52      -11.29      
C           2.26        112.15      -10.64      
C           1.86        114.69      -10.19      
H           4.71        113.56      -8.86       
H           6.45        114.8       -13.48      
H           0.48        113.1       -13.08      
H           4.82        114.3       -15.09      
H           10.58       115.27      -9.48       
H           6.42        113.66      -7.12       
H           9.99        114.93      -12.47      
H           8.55        114.08      -13.06      
H           9.43491     113.25441   -11.82169   
H           8.47        116.89      -12.36      
H           9.53        116.84      -11.04      
H           7.77419     117.09973   -10.77469   
H           2.0         114.37      -9.11       
H           0.78        114.64      -10.44      
H           2.28036     115.68747   -10.31825   
H           2.92        112.01      -9.83       
H           1.26        112.12      -10.29      
H           2.60181     111.36667   -11.31651   
H           11.67       115.27      -7.05       
H           -0.47       112.72      -15.86      
S           8.76        114.0       -5.29       
C           10.67       114.93      -6.7        
C           10.42       114.5       -5.45       
C           -0.59       112.59      -21.31      
C           -1.32       112.13      -20.08      
C           0.47        113.37      -21.02      
N           -2.46       111.46      -20.07      
N           -1.72       112.07      -17.74      
S           -3.08       111.55      -18.5       
H           1.84        114.28      -19.62      
H           1.05        113.75      -21.83      
C           0.98        113.58      -19.7       
C           -0.83       112.41      -18.72      
C           0.37        113.16      -18.51      
C           2.94        105.67      -35.82      
C           2.42        104.9       -34.81      
S           2.8         107.36      -35.5       
C           0.26        107.44      -29.71      
C           0.86        108.31      -30.65      
C           0.96        109.64      -30.41      
C           0.51        110.14      -29.14      
C           -0.09       109.26      -28.17      
C           -0.24       107.9       -28.45      
C           0.87        111.47      -28.53      
C           0.06        111.39      -27.25      
C           -0.35       110.09      -26.95      
C           0.42        105.96      -30.14      
C           0.98        106.13      -31.53      
C           1.14        107.51      -31.81      
C           0.03        112.41      -26.27      
C           -0.41       112.03      -24.99      
C           -0.88       110.73      -24.69      
C           -0.85       109.74      -25.69      
C           1.35        105.26      -32.52      
C           1.84        105.67      -33.76      
C           1.99        107.05      -33.94      
C           1.61        108.0       -33.04      
C           2.35        111.57      -28.22      
C           0.46        112.64      -29.36      
C           1.44        105.26      -29.21      
C           -1.0        105.19      -30.07      
H           -0.66       107.17      -27.71      
H           1.3         110.29      -31.2       
H           1.22        104.16      -32.4       
H           1.63        109.09      -33.25      
H           0.47        113.34      -26.37      
H           -1.24       108.74      -25.54      
H           2.54        112.6       -27.84      
H           2.94        111.69      -29.14      
H           2.79892     110.77037   -27.6308    
H           0.98        112.63      -30.36      
H           0.69        113.55      -28.83      
H           -0.59848    112.58355   -29.61404   
H           -1.46       105.17      -29.1       
H           -1.72       105.71      -30.68      
H           -0.95656    104.12579   -30.30166   
H           1.02        104.59      -28.49      
H           1.65        106.1       -28.58      
H           2.33673     104.83596   -29.66184   
H           0.16        113.88      -23.87      
H           2.48        103.84      -34.7       
S           -1.5        110.68      -23.09      
C           -0.35       112.87      -23.81      
C           -0.89       112.25      -22.67      
C           6.11        105.04      -38.67      
C           5.0         105.94      -39.0       
C           5.98        104.35      -37.46      
N           4.96        106.84      -39.98      
N           2.89        106.93      -38.47      
S           3.51        107.65      -39.81      
H           4.8         103.84      -35.78      
H           6.71        103.61      -37.05      
C           4.81        104.41      -36.67      
C           3.85        106.06      -38.09      
C           3.83        105.3       -36.87      
C           21.66       103.6       -44.37      
C           21.36       104.04      -43.1       
S           20.32       103.98      -45.38      
C           15.64       105.21      -41.31      
C           15.84       105.13      -42.69      
C           14.66       105.01      -43.52      
C           13.44       105.1       -42.98      
C           13.26       105.25      -41.54      
C           14.41       105.4       -40.72      
C           12.1        104.77      -43.61      
C           11.14       105.07      -42.45      
C           11.86       105.3       -41.22      
C           17.01       105.39      -40.6       
C           18.0        105.16      -41.75      
C           17.27       105.05      -42.98      
C           9.78        104.87      -42.38      
C           9.11        105.12      -41.12      
C           9.84        105.5       -39.92      
C           11.24       105.53      -39.99      
C           19.31       104.77      -41.64      
C           19.99       104.4       -42.84      
C           19.23       104.45      -44.06      
C           17.92       104.77      -44.17      
C           12.0        105.73      -44.86      
C           12.18       103.3       -44.07      
C           17.0        106.81      -40.01      
C           17.02       104.32      -39.48      
H           14.25       105.42      -39.63      
H           14.68       104.95      -44.59      
H           19.77       104.64      -40.6       
H           17.39       104.72      -45.14      
H           9.26        104.54      -43.28      
H           11.81       105.68      -39.04      
H           12.8        105.47      -45.56      
H           12.11       106.75      -44.54      
H           11.03847    105.79968   -45.36863   
H           13.1        103.08      -44.65      
H           11.44       103.12      -44.86      
H           12.1586     102.53657   -43.2923    
H           16.13       104.38      -38.82      
H           17.93       104.41      -38.89      
H           16.99902    103.30575   -39.8787    
H           16.29       106.92      -39.29      
H           16.72       107.51      -40.75      
H           17.95367    107.23139   -39.69211   
H           6.98        104.84      -41.47      
H           22.02       103.94      -42.26      
S           8.77        105.58      -38.52      
C           7.73        104.98      -40.79      
C           7.4         105.01      -39.42      
C           25.15       101.91      -46.41      
C           25.11       101.8       -44.97      
C           24.01       102.49      -46.95      
N           26.12       101.45      -44.16      
N           24.12       102.36      -42.89      
S           25.62       101.79      -42.56      
H           22.26       103.53      -46.91      
H           23.86       102.56      -48.0       
C           22.95       102.99      -46.27      
C           23.99       102.32      -44.26      
C           22.86       102.91      -44.92      
C           34.92       96.6        -58.63      
C           33.57       96.4        -58.69      
S           35.32       97.67       -57.31      
C           29.96       98.0        -53.99      
C           31.3        98.31       -53.86      
C           31.77       98.96       -52.73      
C           30.98       99.38       -51.69      
C           29.58       99.09       -51.88      
C           29.08       98.36       -52.96      
C           31.25       100.44      -50.63      
C           29.91       100.39      -49.93      
C           28.94       99.8        -50.8       
C           29.7        97.62       -55.45      
C           31.09       97.35       -55.96      
C           31.96       98.02       -55.11      
C           29.53       101.09      -48.78      
C           28.14       101.14      -48.49      
C           27.22       100.56      -49.42      
C           27.6        99.9        -50.56      
C           31.47       96.77       -57.2       
C           32.88       96.88       -57.48      
C           33.76       97.56       -56.58      
C           33.3        98.14       -55.42      
C           32.43       99.9        -49.77      
C           31.55       101.89      -51.09      
C           28.97       96.3        -55.55      
C           29.04       98.71       -56.31      
H           28.05       98.23       -53.12      
H           32.83       99.16       -52.55      
H           30.78       96.29       -57.86      
H           34.01       98.67       -54.84      
H           30.24       101.37      -48.01      
H           26.84       99.47       -51.21      
H           33.17       100.72      -49.59      
H           33.1        99.25       -50.32      
H           32.03506    99.31836    -48.93704   
H           32.27       101.86      -51.79      
H           31.89       102.48      -50.21      
H           30.72011    102.36904   -51.60952   
H           28.69       98.23       -57.27      
H           29.77       99.56       -56.52      
H           28.21197    99.24132    -55.84078   
H           27.91       96.43       -55.57      
H           29.09       95.95       -56.58      
H           29.21892    95.56036    -54.78903   
H           28.0        102.11      -46.43      
H           33.0        95.79       -59.5       
S           25.6        100.68      -48.8       
C           27.52       101.66      -47.28      
C           26.18       101.53      -47.36      
C           38.08       95.63       -61.56      
C           36.9        94.9        -61.56      
C           38.11       96.61       -60.59      
N           36.45       93.89       -62.32      
N           34.76       94.49       -60.66      
S           34.96       93.31       -61.77      
H           37.35       97.55       -58.97      
H           39.0        97.21       -60.4       
C           37.08       96.84       -59.67      
C           35.84       95.32       -60.63      
C           35.89       96.3        -59.66      
C           53.5        93.74       -67.49      
C           53.02       94.92       -66.82      
S           52.16       92.68       -67.86      
C           47.14       95.63       -65.39      
C           47.4        94.44       -66.15      
C           46.43       93.43       -66.2       
C           45.14       93.7        -65.72      
C           44.9        94.9        -65.07      
C           45.93       95.87       -64.92      
C           43.86       92.84       -65.79      
C           42.88       93.76       -64.94      
C           43.55       94.91       -64.51      
C           48.46       96.38       -65.06      
C           49.41       95.77       -66.16      
C           48.82       94.51       -66.61      
C           41.59       93.57       -64.65      
C           40.9        94.53       -63.86      
C           41.57       95.64       -63.38      
C           42.91       95.9        -63.69      
C           50.75       95.96       -66.19      
C           51.63       94.99       -66.8       
C           50.96       93.86       -67.29      
C           49.6        93.54       -67.29      
C           43.26       92.43       -67.2       
C           43.94       91.64       -64.86      
C           48.3        97.85       -65.34      
C           48.96       96.26       -63.56      
H           45.67       96.8        -64.45      
H           46.59       92.5        -66.7       
H           51.26       96.89       -65.77      
H           49.24       92.58       -67.58      
H           41.11       92.69       -64.93      
H           43.46       96.65       -63.17      
H           43.85       91.61       -67.63      
H           42.26       91.97       -67.07      
H           43.14347    93.30394    -67.84089   
H           44.25       91.88       -63.87      
H           42.92       91.23       -64.87      
H           44.52069    90.78646    -65.20981   
H           48.86       97.22       -63.01      
H           50.01       95.95       -63.67      
H           48.49876    95.50072    -62.92845   
H           47.47       98.18       -64.67      
H           49.11       98.47       -64.83      
H           48.16869    98.20746    -66.36131   
H           38.92       93.57       -63.57      
H           53.63       95.7        -66.47      
S           40.53       96.64       -62.41      
C           39.58       94.41       -63.29      
C           39.26       95.44       -62.42      
C           57.49       92.19       -68.55      
C           57.4        93.39       -67.76      
C           56.27       91.76       -69.08      
N           58.4        94.1        -67.17      
N           56.2        94.83       -66.45      
S           57.76       95.32       -66.31      
H           54.22       91.9        -69.24      
H           56.17       90.93       -69.71      
C           55.08       92.38       -68.77      
C           56.06       93.9        -67.34      
C           54.86       93.33       -67.86      
C           69.26       80.44       -70.12      
C           69.41       81.6        -69.38      
S           67.8        80.61       -71.14      
C           65.43       86.21       -69.0       
C           65.17       85.27       -70.03      
C           64.07       85.4        -70.86      
C           63.23       86.47       -70.74      
C           63.4        87.34       -69.66      
C           64.52       87.22       -68.79      
C           62.03       86.95       -71.58      
C           61.38       88.01       -70.66      
C           62.31       88.31       -69.62      
C           66.78       85.93       -68.29      
C           67.28       84.69       -69.14      
C           66.21       84.21       -70.03      
C           60.15       88.69       -70.71      
C           59.89       89.71       -69.8       
C           60.86       89.98       -68.82      
C           62.04       89.22       -68.61      
C           68.39       83.9        -69.0       
C           68.42       82.63       -69.57      
C           67.4        82.22       -70.48      
C           66.3        83.03       -70.78      
C           62.53       87.41       -72.97      
C           60.98       85.79       -71.74      
C           67.67       87.21       -68.47      
C           66.5        85.58       -66.79      
H           64.62       87.81       -67.88      
H           63.96       84.72       -71.7       
H           69.08       84.16       -68.21      
H           65.66       82.74       -71.57      
H           59.47       88.52       -71.46      
H           62.84       89.34       -67.89      
H           63.14       86.63       -73.45      
H           63.12       88.32       -72.85      
H           61.74138    87.6994     -73.66457   
H           61.32       85.17       -72.55      
H           60.03       86.22       -72.15      
H           60.68568    85.17929    -70.88647   
H           66.08       86.39       -66.23      
H           65.72       84.88       -66.97      
H           67.30349    85.04201    -66.28694   
H           67.94       87.59       -67.45      
H           66.95       87.89       -68.91      
H           68.52542    87.09302    -69.13533   
H           57.87       90.41       -70.48      
H           70.18       81.79       -68.65      
S           60.15       91.38       -67.86      
C           58.72       90.52       -69.8       
C           58.72       91.45       -68.85      
C           71.52       76.63       -70.02      
C           71.96       77.73       -69.22      
C           70.43       76.89       -70.81      
N           73.15       77.72       -68.53      
N           71.86       79.86       -68.33      
S           73.24       79.18       -67.75      
H           68.81       78.16       -71.36      
H           70.19       76.15       -71.59      
C           69.77       78.12       -70.81      
C           71.23       79.03       -69.23      
C           70.1        79.26       -70.13      
C           68.85       60.95       -68.81      
C           69.39       61.55       -67.78      
S           69.61       61.55       -70.31      
C           71.96       66.97       -68.16      
C           71.83       66.32       -69.42      
C           71.87       67.03       -70.67      
C           71.93       68.39       -70.57      
C           72.2        69.03       -69.34      
C           72.27       68.31       -68.09      
C           71.55       69.43       -71.69      
C           72.17       70.65       -71.03      
C           72.32       70.5        -69.62      
C           71.7        66.02       -66.97      
C           71.37       64.76       -67.79      
C           71.38       65.0        -69.16      
C           72.13       71.95       -71.56      
C           72.17       73.09       -70.73      
C           72.34       72.84       -69.34      
C           72.55       71.59       -68.75      
C           70.64       63.68       -67.18      
C           70.18       62.7        -68.07      
C           70.34       62.96       -69.5       
C           70.83       64.13       -70.05      
C           72.3        69.16       -73.03      
C           70.03       69.63       -71.81      
C           73.01       65.9        -66.21      
C           70.48       66.44       -66.07      
H           72.43       68.83       -67.14      
H           71.7        66.51       -71.58      
H           70.58       63.58       -66.1       
H           71.02       64.15       -71.11      
H           72.07       72.05       -72.67      
H           72.61       71.45       -67.66      
H           71.83       68.34       -73.59      
H           72.12       70.0        -73.67      
H           73.38459    69.13873    -72.92367   
H           69.56       70.04       -70.89      
H           69.84       70.46       -72.49      
H           69.51971    68.73524    -72.16651   
H           70.82       67.22       -65.46      
H           70.1        65.67       -65.38      
H           69.61813    66.69022    -66.6886    
H           73.45       66.89       -65.88      
H           73.69       65.38       -66.88      
H           72.98926    65.32614    -65.28353   
H           71.97       74.79       -72.11      
H           69.19       61.29       -66.76      
S           72.37       74.35       -68.57      
C           72.1        74.47       -71.11      
C           72.12       75.29       -69.98      
C           65.74       57.78       -69.55      
C           66.18       58.05       -68.21      
C           66.4        58.54       -70.54      
N           65.64       57.58       -67.07      
N           67.37       59.4        -66.62      
S           66.37       58.35       -65.84      
H           67.75       60.03       -71.09      
H           66.24       58.38       -71.58      
C           67.38       59.52       -70.23      
C           67.19       59.15       -67.92      
C           67.81       59.9        -69.0       
C           58.42       44.92       -76.69      
C           58.8        46.02       -77.44      
S           58.82       45.14       -74.98      
C           61.14       50.95       -74.71      
C           60.7        49.97       -73.78      
C           60.8        50.01       -72.42      
C           61.28       51.17       -71.87      
C           61.65       52.24       -72.72      
C           61.61       52.09       -74.13      
C           61.54       51.46       -70.33      
C           62.08       52.94       -70.45      
C           62.15       53.25       -71.82      
C           60.43       50.82       -76.08      
C           60.07       49.31       -76.0       
C           60.18       48.84       -74.6       
C           62.63       53.76       -69.46      
C           63.33       54.78       -69.91      
C           63.33       55.15       -71.26      
C           62.76       54.39       -72.29      
C           59.65       48.44       -77.03      
C           59.35       47.12       -76.64      
C           59.33       46.76       -75.28      
C           59.75       47.59       -74.23      
C           60.15       51.38       -69.55      
C           62.59       50.54       -69.67      
C           59.05       51.61       -76.22      
C           61.35       51.06       -77.33      
H           61.91       52.92       -74.74      
H           60.55       49.22       -71.75      
H           59.54       48.82       -78.02      
H           59.88       47.27       -73.22      
H           62.64       53.49       -68.43      
H           62.84       54.59       -73.32      
H           60.09       50.49       -69.0       
H           59.4        51.28       -70.33      
H           59.88394    52.25728    -68.96035   
H           62.3        49.5        -69.42      
H           62.61       50.87       -68.64      
H           63.60152    50.57488    -70.07461   
H           60.71       51.49       -78.09      
H           61.57       50.17       -77.97      
H           62.20273    51.7295     -77.21724   
H           58.85       52.14       -77.17      
H           59.07       52.31       -75.36      
H           58.19739    50.98801    -75.94744   
H           64.47       55.55       -68.09      
H           58.51       46.13       -78.51      
S           64.23       56.65       -71.57      
C           64.19       55.64       -69.13      
C           64.76       56.72       -69.87      
C           57.1        40.94       -78.1       
C           58.14       41.67       -78.66      
C           56.48       41.73       -77.14      
N           58.91       41.05       -79.56      
N           59.54       43.36       -78.95      
S           59.96       42.18       -79.96      
H           56.36       43.47       -75.86      
H           55.59       41.39       -76.65      
C           56.93       42.97       -76.62      
C           58.57       42.94       -78.21      
C           58.01       43.6        -77.11      
H           29.63       93.28       24.85       
H           56.59       40.14       -78.59      
