612

C           79.61       12.65       39.17       
C           80.13       12.93       37.94       
S           80.51       11.33       39.83       
C           83.97       9.41        34.93       
C           83.79       9.06        36.3        
C           84.49       8.05        36.95       
C           85.36       7.26        36.16       
C           85.43       7.52        34.8        
C           84.82       8.65        34.14       
C           85.89       5.87        36.59       
C           86.63       5.58        35.34       
C           86.25       6.44        34.26       
C           83.13       10.61       34.51       
C           82.64       11.0        35.9        
C           82.89       10.02       36.87       
C           87.46       4.53        35.12       
C           87.89       4.24        33.79       
C           87.55       5.13        32.79       
C           86.73       6.24        32.98       
C           81.76       12.01       36.18       
C           81.1        11.96       37.46       
C           81.48       11.06       38.39       
C           82.42       10.05       38.12       
C           86.84       5.96        37.77       
C           84.67       4.87        36.77       
C           84.21       11.59       34.01       
C           81.96       10.24       33.49       
H           84.96       8.91        33.13       
H           84.4        7.87        37.99       
H           81.46       12.73       35.42       
H           82.59       9.21        38.74       
H           87.86       3.88        35.89       
H           86.42       6.89        32.15       
H           86.32       6.3         38.66       
H           87.2        4.94        37.99       
H           87.61659    6.71502     37.64776    
H           84.19       4.76        35.81       
H           85.08       3.88        36.96       
H           83.91894    5.06499     37.5355     
H           82.45       9.72        32.62       
H           81.39       9.49        34.01       
H           81.31398    11.08747    33.26077    
H           83.65       12.33       33.36       
H           84.84       11.06       33.34       
H           84.69628    12.09838    34.84257    
H           88.96       2.26        33.93       
H           79.83       13.78       37.44       
S           88.35       4.64        31.29       
C           88.67       3.14        33.32       
C           89.14       3.29        32.02       
C           77.34       15.13       42.01       
C           77.9        15.7        40.81       
C           77.64       13.79       42.14       
N           78.04       17.03       40.66       
N           79.02       15.71       38.83       
S           78.7        17.32       39.23       
H           78.41       11.99       41.4        
H           77.09       13.22       42.88       
C           78.27       13.02       41.17       
C           78.66       14.94       39.84       
C           78.86       13.54       40.02       
C           77.51       25.8        53.86       
C           78.29       24.6        53.85       
S           76.31       25.77       52.52       
C           77.08       20.02       50.11       
C           76.26       21.15       50.0        
C           75.2        21.13       49.17       
C           75.09       20.16       48.16       
C           75.96       19.09       48.27       
C           76.81       18.87       49.38       
C           74.36       20.11       46.89       
C           75.02       18.89       46.25       
C           75.96       18.25       47.13       
C           78.26       20.25       51.05       
C           77.88       21.62       51.55       
C           76.7        22.14       50.9        
C           74.9        18.46       44.95       
C           75.75       17.39       44.53       
C           76.53       16.72       45.46       
C           76.69       17.11       46.77       
C           78.44       22.44       52.54       
C           77.86       23.68       52.9        
C           76.8        24.14       52.08       
C           76.2        23.38       51.12       
C           72.81       19.98       47.09       
C           74.66       21.31       45.93       
C           78.29       19.17       52.18       
C           79.67       20.36       50.37       
H           77.54       18.0        49.43       
H           74.49       21.98       49.09       
H           79.34       22.14       53.09       
H           75.36       23.8        50.49       
H           74.14       18.92       44.4        
H           77.47       16.66       47.48       
H           72.29       20.47       46.32       
H           72.56       20.53       48.01       
H           72.5347     18.9282     47.16765    
H           74.03       22.16       46.2        
H           74.29       20.96       44.99       
H           75.71771    21.5707     45.89276    
H           80.39       20.59       51.11       
H           79.54       21.09       49.68       
H           79.98611    19.4187     49.92042    
H           78.32       18.14       51.86       
H           79.29       19.23       52.8        
H           77.42242    19.22061    52.83791    
H           75.79       17.39       42.24       
H           78.88       24.27       54.74       
S           77.44       15.43       44.78       
C           76.09       16.94       43.19       
C           76.81       15.84       43.16       
C           77.34       29.0        56.98       
C           78.14       27.76       57.14       
C           76.73       29.06       55.75       
N           78.83       27.48       58.22       
N           79.14       25.74       56.53       
S           79.63       26.13       58.01       
H           76.25       28.13       53.83       
H           76.14       29.92       55.54       
C           76.79       27.97       54.75       
C           78.29       26.71       56.11       
C           77.56       26.83       54.91       
C           77.6        43.13       64.82       
C           76.89       42.99       63.65       
S           77.63       41.63       65.74       
C           75.26       37.52       61.49       
C           75.66       37.49       62.84       
C           75.96       36.29       63.52       
C           76.14       35.17       62.71       
C           75.84       35.21       61.36       
C           75.4        36.35       60.76       
C           76.66       33.73       63.06       
C           76.75       33.08       61.67       
C           76.17       33.93       60.74       
C           75.05       39.0        61.02       
C           75.6        39.79       62.22       
C           75.87       38.85       63.27       
C           77.16       31.81       61.32       
C           76.98       31.42       59.95       
C           76.57       32.38       58.99       
C           76.09       33.62       59.39       
C           75.82       41.13       62.35       
C           76.45       41.6        63.5        
C           76.81       40.69       64.54       
C           76.52       39.33       64.44       
C           78.1        33.67       63.69       
C           75.65       32.83       63.87       
C           75.82       39.17       59.7        
C           73.48       39.37       60.78       
H           75.16       36.27       59.66       
H           76.29       36.26       64.55       
H           75.46       41.91       61.68       
H           76.72       38.58       65.14       
H           77.51       31.09       62.01       
H           75.65       34.3        58.66       
H           78.12       33.99       64.73       
H           78.56       32.73       63.59       
H           78.75431    34.44265    63.28628    
H           74.78       32.45       63.4        
H           76.21       31.96       64.17       
H           75.27767    33.30771    64.77624    
H           73.38       40.08       59.96       
H           72.98       39.89       61.63       
H           72.90966    38.48598    60.49483    
H           75.68       38.44       58.91       
H           75.5        40.07       59.2        
H           76.90384    39.20452    59.81045    
H           77.83       29.35       59.84       
H           76.74       43.74       62.89       
S           76.64       31.65       57.37       
C           77.35       30.2        59.32       
C           77.11       30.13       57.96       
C           78.14       46.67       67.16       
C           78.58       46.68       65.86       
C           77.74       45.52       67.65       
N           78.97       47.78       65.21       
N           78.99       45.6        63.8        
S           79.38       47.24       63.69       
H           77.22       43.43       67.31       
H           77.35       45.47       68.66       
C           77.54       44.38       66.81       
C           78.55       45.45       65.03       
C           77.97       44.26       65.54       
C           78.56       58.75       78.64       
C           78.94       57.42       78.86       
S           78.21       58.96       76.88       
C           78.76       53.1        74.61       
C           78.39       54.36       74.12       
C           78.05       54.6        72.75       
C           78.14       53.55       71.92       
C           78.53       52.34       72.39       
C           78.85       52.04       73.77       
C           77.89       53.54       70.42       
C           78.25       52.06       70.12       
C           78.59       51.4        71.29       
C           79.06       53.06       76.07       
C           78.93       54.58       76.39       
C           78.42       55.3        75.22       
C           78.15       51.39       68.94       
C           78.2        50.02       68.85       
C           78.68       49.36       69.99       
C           78.93       50.08       71.18       
C           79.15       55.22       77.62       
C           78.94       56.65       77.62       
C           78.46       57.29       76.5        
C           78.29       56.69       75.24       
C           76.42       53.79       70.16       
C           78.72       54.48       69.64       
C           78.1        52.2        76.82       
C           80.52       52.61       76.33       
H           79.36       51.15       74.12       
H           77.8        55.52       72.39       
H           79.52       54.7        78.49       
H           78.04       57.21       74.33       
H           78.01       51.94       67.99       
H           79.22       49.54       72.03       
H           76.38       54.44       69.33       
H           76.03       54.4        71.04       
H           75.76994    52.93723    69.96428    
H           78.54       55.53       69.91       
H           78.57       54.43       68.54       
H           79.78854    54.35558    69.81565    
H           80.62       51.63       75.95       
H           80.67       52.54       77.39       
H           81.2383     53.3214     75.9225     
H           78.12       51.21       76.4        
H           78.36       52.13       77.9        
H           77.07132    52.55933    76.84818    
H           77.59       49.47       66.79       
H           79.2        56.99       79.81       
S           78.67       47.66       69.71       
C           77.87       49.14       67.78       
C           78.02       47.8        68.07       
C           78.42       62.35       81.15       
C           78.6        61.08       81.8        
C           78.29       62.35       79.8        
N           78.77       60.87       83.12       
N           79.15       58.74       81.73       
S           79.19       59.26       83.34       
H           78.15       61.14       77.97       
H           78.1        63.22       79.24       
C           78.34       61.14       79.07       
C           78.78       59.82       81.01       
C           78.55       59.89       79.57       
C           80.89       77.99       86.15       
C           81.0        77.54       84.86       
S           80.52       76.61       87.19       
C           80.01       71.72       83.25       
C           80.15       71.86       84.65       
C           79.89       70.81       85.52       
C           79.75       69.56       85.05       
C           79.83       69.41       83.66       
C           79.93       70.44       82.71       
C           79.46       68.3        85.8        
C           79.31       67.36       84.66       
C           79.5        68.03       83.41       
C           80.31       73.01       82.38       
C           80.47       73.97       83.57       
C           80.27       73.33       84.85       
C           78.96       65.98       84.73       
C           78.82       65.27       83.52       
C           79.0        66.0        82.28       
C           79.36       67.35       82.25       
C           80.63       75.34       83.48       
C           80.74       76.14       84.64       
C           80.54       75.47       85.86       
C           80.33       74.09       86.01       
C           80.65       68.03       86.77       
C           78.03       68.38       86.53       
C           81.62       72.95       81.53       
C           79.09       73.38       81.59       
H           79.76       70.2        81.67       
H           79.9        70.96       86.59       
H           80.66       75.83       82.48       
H           80.15       73.71       87.0        
H           78.87       65.45       85.7        
H           79.63       67.86       81.32       
H           80.77       68.89       87.43       
H           80.36       67.18       87.4        
H           81.63063    67.97274    86.29758    
H           77.23       68.67       85.85       
H           77.63       67.45       86.99       
H           77.96744    69.10296    87.34333    
H           79.18       74.37       81.22       
H           78.32       73.32       82.25       
H           78.87733    72.74198    80.73221    
H           81.44       72.42       80.6        
H           81.72       73.97       81.16       
H           82.48216    72.55099    82.06439    
H           78.4        63.18       84.04       
H           81.22       78.24       84.18       
S           78.8        65.04       80.84       
C           78.65       63.88       83.2        
C           78.58       63.6        81.87       
C           80.57       82.16       87.84       
C           80.35       81.95       86.44       
C           81.08       81.09       88.53       
N           80.0        82.89       85.55       
N           80.17       80.54       84.64       
S           79.78       82.07       84.14       
H           81.56       78.97       88.71       
H           81.38       81.21       89.5        
C           81.22       79.72       87.99       
C           80.51       80.6        85.91       
C           80.93       79.4        86.7        
C           80.51       96.86       95.42       
C           80.64       96.68       94.07       
S           80.06       95.31       96.08       
C           80.48       91.34       91.06       
C           80.19       91.28       92.43       
C           79.94       90.11       93.13       
C           80.15       88.93       92.4        
C           80.61       88.94       91.08       
C           80.69       90.17       90.39       
C           79.97       87.52       92.97       
C           80.3        86.74       91.72       
C           80.57       87.58       90.59       
C           80.75       92.82       90.66       
C           80.56       93.6        91.9        
C           80.2        92.63       92.97       
C           80.25       85.38       91.5        
C           80.33       84.93       90.16       
C           80.74       85.87       89.14       
C           80.97       87.18       89.34       
C           80.72       94.96       92.16       
C           80.46       95.41       93.5        
C           80.15       94.47       94.54       
C           79.95       93.12       94.27       
C           80.8        87.13       94.22       
C           78.48       87.22       93.18       
C           82.19       92.9        90.14       
C           79.87       93.34       89.57       
H           80.86       90.21       89.32       
H           79.67       90.22       94.17       
H           81.22       95.54       91.37       
H           79.78       92.37       95.04       
H           80.09       84.72       92.33       
H           81.31       87.87       88.59       
H           80.55       87.95       94.85       
H           80.47       86.24       94.8        
H           81.87895    87.10103    94.06793    
H           77.91       87.75       92.47       
H           78.25       86.2        92.85       
H           78.09584    87.37946    94.18752    
H           80.32       93.23       88.56       
H           79.76       94.48       89.69       
H           78.86867    92.91801    89.65583    
H           82.33       92.06       89.42       
H           82.3        93.74       89.5        
H           82.93526    92.9        90.93542    
H           79.93       82.81       90.34       
H           80.99       97.53       93.51       
S           81.1        84.99       87.65       
C           80.19       83.61       89.69       
C           80.44       83.49       88.39       
C           81.74       100.04      98.19       
C           81.7        100.31      96.82       
C           81.19       98.86       98.54       
N           82.13       101.43      96.11       
N           81.29       99.63       94.63       
S           81.92       101.19      94.48       
H           80.36       96.95       98.1        
H           81.15       98.53       99.56       
C           80.76       97.86       97.65       
C           81.26       99.3        95.87       
C           80.67       98.03       96.27       
C           79.56       107.4       112.39      
C           80.24       106.18      112.28      
S           79.71       108.29      110.91      
C           82.34       103.98      107.02      
C           81.96       105.31      107.03      
C           82.04       106.06      105.85      
C           82.36       105.4       104.63      
C           82.71       104.05      104.67      
C           82.66       103.32      105.85      
C           82.2        105.82      103.16      
C           82.61       104.53      102.36      
C           82.75       103.49      103.35      
C           82.44       103.39      108.43      
C           81.82       104.58      109.24      
C           81.55       105.68      108.37      
C           82.46       104.24      101.04      
C           82.56       102.87      100.65      
C           82.71       101.9       101.61      
C           82.76       102.17      102.96      
C           81.3        104.64      110.5       
C           80.74       105.87      110.93      
C           80.52       106.97      110.03      
C           80.94       106.86      108.71      
C           80.74       106.17      102.87      
C           83.1        106.97      102.76      
C           81.56       102.09      108.57      
C           83.93       103.22      108.88      
H           82.9        102.21      105.88      
H           81.73       107.05      105.87      
H           81.38       103.87      111.19      
H           80.55       107.59      107.99      
H           82.45       104.97      100.23      
H           82.76       101.43      103.72      
H           80.35       106.87      103.6       
H           80.71       106.64      101.87      
H           80.06906    105.32062   102.99848   
H           84.06       106.55      102.81      
H           82.77       107.26      101.75      
H           83.15721    107.84251   103.41081   
H           84.4        102.48      108.16      
H           84.42       104.17      108.58      
H           84.00827    102.94963   109.93303   
H           81.63       101.73      109.61      
H           81.89       101.23      107.98      
H           80.54977    102.23836   108.18852   
H           82.25       102.91      98.43       
H           80.23       105.38      112.98      
S           82.54       100.27      100.88      
C           82.39       102.29      99.29       
C           82.23       100.94      99.24       
C           78.15       109.59      115.92      
C           79.04       108.44      116.0       
C           77.64       109.87      114.64      
N           79.59       107.94      117.12      
N           80.4        106.77      115.14      
S           80.58       106.73      116.75      
H           77.65       109.24      112.52      
H           76.97       110.74      114.45      
C           78.05       109.04      113.48      
C           79.5        107.76      114.86      
C           79.02       108.07      113.56      
C           74.1        120.29      128.04      
C           73.15       119.95      127.13      
S           75.53       119.39      127.75      
C           74.37       116.07      122.6       
C           75.34       116.28      123.61      
C           76.61       115.67      123.53      
C           76.78       114.69      122.62      
C           75.75       114.44      121.6       
C           74.59       115.18      121.56      
C           77.85       113.5       122.53      
C           77.5        112.96      121.12      
C           76.31       113.5       120.61      
C           73.13       117.0       122.87      
C           73.56       117.7       124.17      
C           74.82       117.22      124.52      
C           78.17       111.99      120.48      
C           77.7        111.56      119.18      
C           76.46       112.12      118.65      
C           75.75       113.19      119.34      
C           72.84       118.55      124.94      
C           73.58       119.1       126.06      
C           74.89       118.73      126.3       
C           75.47       117.71      125.65      
C           79.26       114.04      122.59      
C           77.57       112.37      123.58      
C           72.96       118.14      121.75      
C           71.88       116.18      123.17      
H           73.84       115.07      120.83      
H           77.32       115.83      124.35      
H           71.77       118.86      124.82      
H           76.38       117.19      125.92      
H           79.11       111.67      120.89      
H           74.83       113.55      118.98      
H           79.62       114.38      123.58      
H           80.02       113.29      122.49      
H           79.44811    114.8648    121.90267   
H           76.69       111.79      123.3       
H           78.37       111.66      123.44      
H           77.41314    112.81205   124.56392   
H           71.62       115.55      122.34      
H           70.99       116.84      123.15      
H           71.82406    115.71851   124.1559    
H           73.96       118.54      121.42      
H           72.36       118.95      122.08      
H           72.51579    117.78893   120.81859   
H           79.19       110.13      118.5       
H           72.14       120.2       127.25      
S           76.33       111.52      116.97      
C           78.28       110.64      118.3       
C           77.74       110.45      117.05      
C           73.92       122.33      131.94      
C           72.74       121.65      131.48      
C           75.02       122.32      131.05      
N           71.53       121.63      132.03      
N           71.65       120.44      129.83      
S           70.55       120.87      130.97      
H           76.03       121.67      129.32      
H           75.94       122.72      131.39      
C           75.06       121.62      129.84      
C           72.81       120.94      130.21      
C           73.96       120.92      129.38      
C           74.06       130.39      146.38      
C           72.91       129.68      145.96      
S           75.36       130.37      145.23      
C           72.92       126.64      140.8       
C           74.08       127.34      141.09      
C           75.21       127.34      140.23      
C           75.14       126.49      139.14      
C           73.96       125.74      138.87      
C           72.87       125.77      139.68      
C           76.27       126.16      138.2       
C           75.44       125.44      137.13      
C           74.15       125.15      137.56      
C           71.98       126.62      141.99      
C           72.66       127.71      142.86      
C           73.88       128.07      142.31      
C           75.91       124.97      135.93      
C           75.05       124.12      135.14      
C           73.69       124.04      135.49      
C           73.26       124.49      136.76      
C           72.26       128.14      144.1       
C           73.07       129.05      144.7       
C           74.38       129.37      144.17      
C           74.76       128.88      142.95      
C           76.98       127.49      137.68      
C           77.22       125.11      138.71      
C           70.64       127.19      141.49      
C           71.94       125.14      142.43      
H           72.02       125.19      139.41      
H           76.15       127.79      140.48      
H           71.27       127.98      144.55      
H           75.8        129.06      142.63      
H           76.92       125.11      135.68      
H           72.33       124.16      137.15      
H           77.29       128.04      138.52      
H           77.78       127.14      137.04      
H           76.35638    128.16323   137.09181   
H           76.64       124.17      138.78      
H           77.98       125.0       138.04      
H           77.69917    125.31025   139.66833   
H           71.42       124.49      141.74      
H           72.9        124.73      142.3       
H           71.57006    124.93758   143.43512   
H           69.84       126.54      141.91      
H           70.53       127.23      140.45      
H           70.46487    128.22679   141.77722   
H           76.15       123.31      133.39      
H           72.06       129.48      146.61      
S           72.71       123.22      134.32      
C           75.18       123.51      133.83      
C           74.02       123.0       133.22      
C           74.95       132.95      149.93      
C           73.79       132.22      149.78      
C           75.85       132.75      148.95      
N           72.92       132.21      150.82      
N           72.2        130.82      148.84      
S           71.53       131.53      150.22      
H           76.42       131.76      147.21      
H           76.87       133.12      149.03      
C           75.56       131.93      147.83      
C           73.41       131.44      148.66      
C           74.35       131.26      147.6       
C           80.36       146.08      158.77      
C           81.09       145.37      157.76      
S           78.79       145.32      158.99      
C           78.96       140.37      154.96      
C           78.05       140.86      155.98      
C           76.86       140.26      156.28      
C           76.58       139.07      155.58      
C           77.47       138.57      154.61      
C           78.71       139.18      154.32      
C           75.31       138.22      155.57      
C           75.64       137.13      154.56      
C           76.9        137.35      154.02      
C           80.34       141.05      155.07      
C           80.06       142.19      156.01      
C           78.77       142.02      156.58      
C           74.86       136.01      154.14      
C           75.29       135.25      153.03      
C           76.52       135.66      152.41      
C           77.35       136.67      152.88      
C           80.88       143.17      156.45      
C           80.4        144.21      157.29      
C           79.14       144.01      157.93      
C           78.35       142.9       157.59      
C           75.05       137.75      157.05      
C           74.1        138.95      154.98      
C           81.37       140.07      155.69      
C           80.77       141.64      153.68      
H           79.37       138.77      153.6       
H           76.26       140.67      157.13      
H           81.89       143.32      156.06      
H           77.39       142.85      158.01      
H           73.87       135.84      154.58      
H           78.11       137.05      152.28      
H           74.0        137.71      157.31      
H           75.4        138.48      157.72      
H           75.45662    136.77136   157.305     
H           74.42       139.3       153.95      
H           73.17       138.38      154.92      
H           73.81081    139.88265   155.4644    
H           80.54       140.76      152.96      
H           80.09       142.5       153.31      
H           81.77386    142.05589   153.59395   
H           82.35       140.3       155.49      
H           81.15       139.17      155.12      
H           81.25125    139.89187   156.75877   
H           73.73       133.79      152.48      
H           82.02       145.68      157.33      
S           76.86       134.7       150.97      
C           74.66       134.23      152.18      
C           75.32       133.83      151.1       
C           80.71       150.06      160.79      
C           81.31       149.78      159.53      
C           79.96       149.03      161.23      
N           82.07       150.65      158.89      
N           81.95       148.42      157.8       
S           82.42       149.96      157.39      
H           79.18       147.0       161.04      
H           79.44       149.17      162.17      
C           79.87       147.73      160.62      
C           81.29       148.47      158.89      
C           80.58       147.4       159.46      
H           89.92       2.64        31.46       
H           81.0        151.0       161.28      
