612

C           66.06       31.07       59.84       
C           65.64       30.43       58.7        
S           67.57       31.87       59.52       
C           69.44       29.65       53.85       
C           69.86       30.55       54.88       
C           71.13       31.12       54.92       
C           71.99       30.73       53.88       
C           71.59       29.9        52.76       
C           70.37       29.25       52.88       
C           73.49       31.13       53.68       
C           73.72       30.65       52.21       
C           72.68       29.82       51.76       
C           68.07       29.02       54.27       
C           67.61       29.91       55.46       
C           68.74       30.71       55.81       
C           74.89       30.76       51.5        
C           75.05       30.06       50.34       
C           74.03       29.12       49.97       
C           72.78       29.04       50.61       
C           66.55       29.81       56.37       
C           66.56       30.4        57.64       
C           67.65       31.23       57.92       
C           68.71       31.38       56.99       
C           73.69       32.64       53.97       
C           74.46       30.31       54.58       
C           67.11       29.17       53.13       
C           68.11       27.54       54.8        
H           70.17       28.47       52.13       
H           71.35       31.8        55.73       
H           65.71       29.15       56.04       
H           69.55       32.01       57.23       
H           75.67       31.52       51.78       
H           71.96       28.46       50.25       
H           74.79       32.8        53.92       
H           73.32       32.86       55.02       
H           73.14585    33.30429    53.29864    
H           74.32       30.64       55.6        
H           75.48       30.57       54.42       
H           74.31699    29.23027    54.6229     
H           67.7        26.91       54.06       
H           67.48       27.42       55.64       
H           69.07904    27.21699    55.18044    
H           67.59       28.74       52.27       
H           66.16       28.73       53.41       
H           66.96772    30.2371     52.95926    
H           77.04       30.61       49.72       
H           64.69       29.94       58.71       
S           74.39       28.54       48.37       
C           76.18       30.06       49.45       
C           76.02       29.24       48.37       
C           63.74       31.97       63.43       
C           63.51       30.76       62.72       
C           64.83       32.69       63.01       
N           62.57       29.84       62.92       
N           63.91       29.33       60.89       
S           62.73       28.68       61.79       
H           66.4        33.07       61.67       
H           65.13       33.55       63.53       
C           65.55       32.42       61.82       
C           64.28       30.46       61.5        
C           65.35       31.31       61.05       
C           55.97       39.06       76.37       
C           56.88       39.69       75.67       
S           55.58       37.5        75.71       
C           59.59       37.12       70.63       
C           58.64       36.36       71.37       
C           58.38       34.99       71.02       
C           59.15       34.46       69.97       
C           60.03       35.24       69.26       
C           60.25       36.6        69.52       
C           59.11       33.1        69.46       
C           60.08       33.22       68.26       
C           60.69       34.53       68.17       
C           59.39       38.6        71.14       
C           58.6        38.41       72.45       
C           58.01       37.09       72.43       
C           60.48       32.24       67.35       
C           61.4        32.59       66.33       
C           61.96       33.91       66.29       
C           61.61       34.87       67.19       
C           58.34       39.31       73.51       
C           57.37       38.96       74.5        
C           56.68       37.68       74.38       
C           57.02       36.76       73.43       
C           59.59       32.1        70.54       
C           57.64       32.79       69.0        
C           60.82       39.15       71.37       
C           58.64       39.5        70.09       
H           61.03       37.16       68.96       
H           57.85       34.39       71.72       
H           58.76       40.27       73.49       
H           56.52       35.79       73.28       
H           60.12       31.26       67.36       
H           61.99       35.88       67.08       
H           58.99       32.29       71.4        
H           59.41       31.1        70.25       
H           60.62266    32.30932    70.8191     
H           57.07       32.82       69.86       
H           57.61       31.8        68.54       
H           57.26446    33.53412    68.29761    
H           58.93       40.55       70.42       
H           57.6        39.45       70.05       
H           58.97574    39.45       69.0542     
H           61.53       39.29       70.48       
H           60.66       40.13       71.77       
H           61.38015    38.55484    72.09119    
H           61.68       30.75       65.12       
H           57.26       40.69       75.94       
S           63.26       34.09       65.12       
C           61.97       31.82       65.29       
C           62.99       32.44       64.6        
C           53.58       40.19       79.93       
C           54.87       40.79       79.73       
C           53.16       39.46       78.84       
N           55.38       41.79       80.41       
N           56.88       41.02       78.6        
S           56.93       41.94       79.93       
H           53.52       38.43       77.01       
H           52.19       38.92       78.77       
C           54.01       39.03       77.78       
C           55.72       40.4        78.6        
C           55.29       39.42       77.64       
C           41.19       43.5        90.36       
C           40.96       42.66       89.34       
S           42.73       44.33       90.33       
C           45.3        41.64       85.17       
C           45.65       42.54       86.26       
C           46.91       42.99       86.41       
C           47.95       42.43       85.61       
C           47.59       41.5        84.59       
C           46.3        41.07       84.4        
C           49.39       42.93       85.62       
C           49.93       42.12       84.45       
C           48.9        41.26       83.91       
C           43.83       41.32       85.23       
C           43.36       42.2        86.43       
C           44.47       42.89       87.01       
C           51.24       42.03       83.95       
C           51.46       41.26       82.86       
C           50.44       40.36       82.36       
C           49.21       40.3        82.87       
C           42.17       42.1        87.11       
C           42.03       42.72       88.39       
C           43.13       43.57       88.79       
C           44.35       43.69       88.15       
C           49.52       44.45       85.27       
C           50.18       42.47       86.94       
C           42.98       41.73       83.99       
C           43.61       39.88       85.7        
H           46.09       40.33       83.6        
H           47.12       43.62       87.25       
H           41.33       41.52       86.73       
H           45.18       44.33       88.51       
H           52.1        42.62       84.3        
H           48.48       39.68       82.41       
H           48.84       45.07       85.94       
H           50.55       44.67       85.54       
H           49.28902    44.58299    84.21309    
H           50.13       41.41       87.14       
H           51.26       42.65       86.75       
H           49.96005    43.05423    87.83353    
H           42.62       39.79       86.17       
H           44.29       39.71       86.55       
H           43.78309    39.10829    84.94993    
H           43.11       40.84       83.34       
H           41.92       41.85       84.17       
H           43.40467    42.58641    83.46624    
H           53.42       42.06       81.97       
H           40.12       41.99       89.32       
S           51.13       39.46       81.04       
C           52.61       41.35       81.97       
C           52.61       40.43       80.98       
C           38.45       44.15       93.8        
C           38.57       42.89       93.21       
C           39.28       45.11       93.25       
N           37.84       41.79       93.53       
N           39.46       41.36       91.65       
S           38.39       40.52       92.59       
H           40.95       45.68       91.93       
H           39.33       46.07       93.74       
C           40.23       44.82       92.23       
C           39.49       42.64       92.08       
C           40.39       43.62       91.56       
C           29.88       43.8        107.55      
C           29.71       43.08       106.37      
S           30.71       45.29       107.16      
C           31.91       44.38       101.02      
C           32.32       45.21       101.96      
C           33.43       46.15       101.81      
C           34.13       46.15       100.6       
C           33.56       45.25       99.58       
C           32.55       44.32       99.8        
C           35.12       47.14       99.99       
C           35.24       46.52       98.6        
C           34.52       45.29       98.51       
C           30.87       43.33       101.51      
C           30.83       43.73       102.97      
C           31.56       44.93       103.16      
C           36.14       46.78       97.59       
C           36.35       45.79       96.64       
C           35.63       44.56       96.61       
C           34.62       44.33       97.52       
C           30.11       43.1        103.96      
C           30.2        43.67       105.22      
C           30.85       44.9        105.38      
C           31.56       45.56       104.38      
C           34.59       48.62       100.06      
C           36.5        46.98       100.6       
C           29.48       43.52       100.92      
C           31.42       41.86       101.45      
H           32.2        43.79       98.99       
H           33.62       46.8        102.67      
H           29.56       42.17       103.81      
H           32.32       46.28       104.53      
H           36.72       47.66       97.55       
H           34.11       43.41       97.55       
H           35.37       49.19       100.56      
H           33.68       48.59       100.7       
H           34.42467    49.07286    99.08241    
H           37.01       46.25       99.93       
H           37.1        47.89       100.35      
H           36.54209    46.62926    101.63117   
H           31.06       41.14       102.22      
H           32.45       41.86       101.82      
H           31.39204    41.31488    100.50652   
H           29.51       43.24       99.86       
H           28.71       42.8        101.32      
H           29.12118    44.54622    100.99894   
H           38.12       46.53       95.58       
H           29.28       42.07       106.36      
S           36.07       43.61       95.21       
C           37.39       45.73       95.66       
C           37.48       44.59       94.89       
C           29.03       42.82       111.77      
C           29.25       41.89       110.79      
C           29.3        44.08       111.28      
N           29.01       40.61       111.04      
N           29.71       41.03       108.66      
S           29.41       39.8        109.69      
H           29.73       45.44       109.69      
H           29.07       44.98       111.87      
C           29.63       44.39       109.88      
C           29.57       42.15       109.37      
C           29.71       43.48       108.89      
C           22.18       41.14       126.89      
C           21.93       42.25       126.11      
S           23.03       39.96       125.96      
C           24.19       42.84       120.52      
C           24.49       41.62       121.16      
C           25.22       40.54       120.58      
C           25.83       40.78       119.34      
C           25.65       42.1        118.71      
C           24.82       43.08       119.31      
C           26.47       39.84       118.3       
C           26.83       40.87       117.16      
C           26.37       42.21       117.44      
C           23.5        43.91       121.43      
C           23.15       42.99       122.56      
C           23.82       41.72       122.44      
C           27.53       40.55       116.07      
C           27.83       41.61       115.12      
C           27.37       42.89       115.39      
C           26.6        43.23       116.52      
C           22.53       43.29       123.81      
C           22.52       42.26       124.8       
C           23.21       41.08       124.63      
C           24.0        40.83       123.5       
C           27.84       39.25       118.77      
C           25.54       38.78       117.76      
C           24.52       44.98       121.91      
C           22.2        44.48       120.88      
H           24.68       43.96       118.73      
H           25.37       39.6        121.2       
H           22.02       44.21       124.0       
H           24.6        39.93       123.32      
H           27.85       39.48       115.83      
H           26.31       44.26       116.68      
H           27.76       38.82       119.79      
H           28.26       38.5        118.1       
H           28.63417    39.97389    118.95273   
H           24.72       39.16       117.2       
H           26.02       38.26       116.96      
H           25.13783    38.08149    118.49379   
H           22.32       45.42       120.38      
H           21.59       44.76       121.72      
H           21.60743    43.72322    120.36596   
H           24.74       45.59       121.0       
H           25.43       44.5        122.16      
H           24.23373    45.54555    122.79673   
H           28.92       40.6        113.49      
H           21.48       43.12       126.54      
S           27.75       43.91       114.04      
C           28.55       41.49       113.84      
C           28.51       42.61       113.1       
C           20.86       39.82       130.82      
C           20.78       41.23       130.51      
C           21.63       39.07       130.0       
N           20.04       42.14       131.18      
N           20.81       42.94       128.95      
S           20.07       43.51       130.27      
H           22.69       38.79       128.18      
H           21.93       38.09       130.29      
C           22.1        39.53       128.75      
C           21.19       41.63       129.17      
C           21.81       40.75       128.3       
C           15.01       30.93       143.36      
C           16.19       30.76       142.71      
S           14.38       32.55       143.14      
C           18.54       34.58       138.75      
C           17.47       35.14       139.49      
C           16.83       36.26       139.02      
C           17.38       36.92       137.88      
C           18.46       36.33       137.16      
C           19.04       35.17       137.6       
C           16.88       38.22       137.18      
C           17.73       38.1        135.88      
C           18.71       37.1        135.93      
C           18.98       33.21       139.26      
C           17.91       33.0        140.26      
C           17.15       34.14       140.49      
C           17.93       39.05       134.89      
C           18.84       38.85       133.9       
C           19.78       37.79       133.93      
C           19.73       36.88       134.98      
C           17.66       31.89       140.98      
C           16.65       31.83       141.91      
C           15.77       32.92       142.1       
C           16.01       34.11       141.34      
C           15.39       38.09       136.92      
C           17.22       39.4        138.08      
C           18.9        32.14       138.17      
C           20.39       33.11       139.93      
H           19.73       34.61       137.01      
H           16.0        36.68       139.56      
H           18.26       30.99       140.8       
H           15.29       34.93       141.41      
H           17.18       39.87       134.85      
H           20.51       36.12       134.99      
H           15.05       39.12       136.57      
H           14.86       37.85       137.76      
H           15.15732    37.2414     136.2767    
H           16.43       39.43       138.87      
H           17.07       40.37       137.56      
H           18.2215     39.4        138.51022   
H           20.73       32.05       139.85      
H           20.33       33.47       140.97      
H           21.08635    33.8207     139.48491   
H           19.57       32.25       137.36      
H           19.14       31.21       138.72      
H           17.90822    32.02042    137.7339    
H           18.62       40.65       132.64      
H           16.68       29.79       142.66      
S           20.89       37.79       132.54      
C           19.09       39.69       132.76      
C           20.14       39.29       131.94      
C           12.7        27.31       144.26      
C           14.05       27.44       144.71      
C           12.13       28.53       143.81      
N           14.95       26.48       145.13      
N           16.13       28.64       144.88      
S           16.45       27.16       145.34      
H           12.42       30.58       143.18      
H           11.15       28.57       143.31      
C           12.88       29.72       143.68      
C           14.84       28.69       144.54      
C           14.22       29.88       144.03      
C           7.17        17.18       133.13      
C           6.5         18.24       133.63      
S           8.51        16.75       134.2       
C           7.81        20.97       138.82      
C           8.65        19.86       138.59      
C           9.75        19.52       139.5       
C           10.07       20.42       140.47      
C           9.19        21.54       140.73      
C           8.13        21.85       139.9       
C           11.28       20.48       141.38      
C           11.09       21.91       141.99      
C           9.81        22.45       141.74      
C           6.94        21.33       137.69      
C           7.04        20.01       136.84      
C           8.21        19.29       137.36      
C           12.02       22.47       142.79      
C           11.71       23.77       143.14      
C           10.48       24.39       142.79      
C           9.41        23.69       142.19      
C           6.39        19.7        135.72      
C           6.87        18.69       134.92      
C           8.04        17.97       135.37      
C           8.68        18.27       136.56      
C           11.28       19.36       142.49      
C           12.55       20.51       140.48      
C           5.5         21.52       138.23      
C           7.41        22.62       137.0       
H           7.5         22.71       140.25      
H           10.38       18.66       139.27      
H           5.55        20.32       135.34      
H           9.61        17.81       136.86      
H           13.02       22.09       142.74      
H           8.52        24.15       141.94      
H           12.27       19.08       142.82      
H           10.96       18.52       141.95      
H           10.68298    19.54964    143.38202   
H           12.66       19.57       139.99      
H           13.35       20.59       141.23      
H           12.45283    21.32472    139.76245   
H           7.42        23.36       137.8       
H           8.43        22.23       136.7       
H           6.82812     22.96352    136.14471   
H           4.86        21.99       137.51      
H           5.47        22.25       138.98      
H           5.0707      20.56517    138.53347   
H           13.58       24.45       144.09      
H           5.55        18.49       133.14      
S           10.46       26.02       143.38      
C           12.56       24.74       143.83      
C           12.09       26.0        143.93      
C           6.55        15.35       129.22      
C           6.2         16.7        129.43      
C           7.14        14.75       130.31      
N           5.59        17.5        128.53      
N           6.17        18.63       130.55      
S           5.49        18.97       129.15      
H           7.77        14.67       132.42      
H           7.53        13.74       130.2       
C           7.39        15.34       131.62      
C           6.54        17.34       130.66      
C           7.04        16.61       131.79      
C           5.19        7.07        114.81      
C           5.51        6.43        116.0       
S           4.72        8.82        115.14      
C           5.85        9.34        121.43      
C           5.37        10.05       120.35      
C           5.09        11.37       120.47      
C           5.46        12.06       121.66      
C           5.92        11.32       122.77      
C           6.14        9.95        122.69      
C           5.51        13.59       121.93      
C           5.93        13.6        123.38      
C           6.15        12.27       123.86      
C           6.29        7.92        120.92      
C           5.7         7.94        119.47      
C           5.21        9.2         119.19      
C           6.03        14.67       124.26      
C           6.38        14.39       125.59      
C           6.48        13.06       126.02      
C           6.42        11.98       125.16      
C           5.73        6.97        118.47      
C           5.36        7.28        117.16      
C           4.89        8.57        116.92      
C           4.73        9.54        117.89      
C           6.74        14.27       121.18      
C           4.27        14.4        121.69      
C           7.82        7.71        120.9       
C           5.55        6.77        121.57      
H           6.55        9.34        123.49      
H           4.65        11.87       119.63      
H           6.22        5.95        118.67      
H           4.44        10.5        117.64      
H           5.99        15.76       123.91      
H           6.51        10.97       125.52      
H           6.55        14.37       120.14      
H           6.88        15.32       121.5       
H           7.68539     13.7728     121.39709   
H           3.56        14.09       122.46      
H           4.58        15.42       121.81      
H           3.84428     14.25809    120.69666   
H           6.04        5.85        121.2       
H           4.51        6.9         121.25      
H           5.58508     6.70685     122.6576    
H           8.18        6.7         121.09      
H           8.19        8.25        121.73      
H           8.33454     8.18831     120.06659   
H           6.28        16.31       126.58      
H           5.88        5.36        116.09      
S           6.81        12.97       127.78      
C           6.42        15.28       126.69      
C           6.61        14.7        127.91      
C           5.14        5.71        110.66      
C           5.71        4.92        111.71      
C           4.55        6.85        111.14      
N           6.15        3.66        111.47      
N           6.15        4.27        113.89      
S           6.39        3.0         112.93      
H           3.98        8.05        112.69      
H           3.97        7.49        110.47      
C           4.6         7.25        112.47      
C           5.75        5.28        113.08      
C           5.25        6.61        113.49      
C           -1.93       1.17        96.48       
C           -2.57       1.96        97.44       
S           -0.26       0.94        96.94       
C           0.46        4.13        102.25      
C           1.25        3.41        101.34      
C           2.57        3.01        101.61      
C           3.05        3.37        102.8       
C           2.29        4.06        103.79      
C           1.01        4.45        103.51      
C           4.43        3.1         103.4       
C           4.41        3.65        104.85      
C           3.09        4.26        105.02      
C           -0.8        4.64        101.63      
C           -0.88       3.63        100.46      
C           0.4         3.13        100.2       
C           5.27        3.77        105.92      
C           4.85        4.36        107.16      
C           3.52        4.93        107.23      
C           2.8         5.04        106.15      
C           -1.91       3.33        99.57       
C           -1.72       2.45        98.49       
C           -0.38       2.11        98.24       
C           0.74        2.44        99.06       
C           4.75        1.58        103.5       
C           5.53        3.97        102.62      
C           -2.0        4.54        102.54      
C           -0.64       6.13        101.17      
H           0.38        4.9         104.28      
H           3.01        2.31        100.97      
H           -2.84       3.92        99.71       
H           1.79        1.96        98.89       
H           6.34        3.49        105.89      
H           1.78        5.52        106.3       
H           4.32        1.1         102.62      
H           4.1         1.24        104.31      
H           5.78387     1.29164     103.68989   
H           6.13        3.24        101.92      
H           6.32        4.23        103.42      
H           5.18618     4.85821     102.08994   
H           -1.26       6.83        101.76      
H           -0.85       6.14        100.09      
H           0.36525     6.55132     101.17739   
H           -1.82       5.15        103.41      
H           -2.83       5.01        102.07      
H           -2.19777    3.55796     102.96964   
H           6.66        4.34        108.48      
H           -3.6        2.3         97.25       
S           3.22        5.64        108.83      
C           5.6         4.52        108.4       
C           4.85        5.27        109.31      
C           -3.68       -1.76       93.59       
C           -2.42       -1.06       93.33       
C           -4.29       -1.23       94.73       
N           -1.68       -1.18       92.22       
N           -0.67       0.3         93.86       
S           -0.34       -0.28       92.38       
H           -4.29       -0.14       96.46       
H           -5.23       -1.51       95.02       
C           -3.65       -0.32       95.62       
C           -1.84       -0.17       94.32       
C           -2.47       0.34        95.49       
C           -9.55       -14.21      84.47       
C           -8.45       -13.46      84.07       
S           -10.45      -13.24      85.71       
C           -6.49       -8.38       86.88       
C           -7.84       -8.69       87.13       
C           -8.66       -7.94       87.97       
C           -8.04       -7.06       88.79       
C           -6.7        -6.76       88.6        
C           -5.88       -7.42       87.67       
C           -8.56       -6.41       90.07       
C           -7.46       -5.41       90.31       
C           -6.24       -5.86       89.65       
C           -5.88       -9.33       85.83       
C           -7.05       -10.27      85.51       
C           -8.18       -9.91       86.31       
C           -7.38       -4.49       91.36       
C           -6.07       -4.01       91.7        
C           -4.91       -4.4        90.96       
C           -4.99       -5.36       89.95       
C           -7.1        -11.42      84.79       
C           -8.17       -12.28      84.84       
C           -9.27       -11.92      85.73       
C           -9.32       -10.66      86.26       
C           -9.94       -5.8        89.74       
C           -8.51       -7.58       91.07       
C           -5.42       -8.49       84.61       
C           -4.76       -10.16      86.39       
H           -4.89       -7.14       87.51       
H           -9.72       -8.21       88.08       
H           -6.19       -11.75      84.3        
H           -10.15      -10.33      86.91       
H           -8.24       -4.25       91.97       
H           -4.08       -5.72       89.46       
H           -10.52      -6.52       89.19       
H           -9.76       -4.99       89.06       
H           -10.52457   -5.40307    90.56995    
H           -7.5        -7.98       91.13       
H           -8.7        -7.15       92.04       
H           -9.24636    -8.35967    90.87508    
H           -3.89       -9.48       86.59       
H           -4.43       -10.84      85.65       
H           -5.01813    -10.65413   87.32664    
H           -4.56       -8.97       84.12       
H           -4.96       -7.61       84.99       
H           -6.16378    -8.11096    83.90913    
H           -6.43       -2.62       93.52       
H           -7.79       -13.91      83.45       
S           -3.44       -3.47       91.35       
C           -5.74       -3.02       92.69       
C           -4.38       -2.68       92.65       
C           -11.34      -17.85      82.81       
C           -10.5       -17.06      81.99       
C           -11.56      -17.3       84.08       
N           -10.32      -17.22      80.66       
N           -9.25       -15.14      81.55       
S           -9.23       -16.05      80.18       
H           -10.99      -15.93      85.64       
H           -11.92      -17.96      84.8        
C           -10.84      -16.18      84.59       
C           -9.92       -15.79      82.51       
C           -10.05      -15.37      83.86       
H           76.45       29.42       47.41       
H           -11.73      -18.82      82.47       
