612

C           92.06       6.8         33.85       
C           92.57       7.17        35.04       
S           92.73       5.21        33.45       
C           96.1        3.41        38.36       
C           96.05       3.13        36.98       
C           96.39       1.87        36.51       
C           96.87       0.97        37.44       
C           96.99       1.28        38.79       
C           96.56       2.49        39.26       
C           97.35       -0.48       37.17       
C           97.79       -0.9        38.61       
C           97.5        0.12        39.47       
C           95.34       4.69        38.7        
C           95.01       5.2         37.3        
C           95.27       4.18        36.4        
C           98.39       -2.08       39.03       
C           98.75       -2.15       40.41       
C           98.52       -1.07       41.29       
C           97.83       0.13        40.83       
C           94.19       6.3         36.91       
C           93.54       6.28        35.67       
C           93.88       5.22        34.75       
C           94.78       4.19        35.11       
C           96.19       -1.36       36.61       
C           98.49       -0.5        36.13       
C           94.06       4.43        39.54       
C           96.29       5.8         39.22       
H           96.62       2.78        40.31       
H           96.19       1.51        35.5        
H           94.04       7.09        37.54       
H           94.99       3.39        34.42       
H           98.62       -2.92       38.36       
H           97.58       0.97        41.43       
H           95.83       -0.89       35.7        
H           95.26       -1.31       37.25       
H           96.3769     -2.4122     36.39541    
H           98.08       -0.27       35.08       
H           98.78       -1.61       36.17       
H           99.31523    0.18046     36.33993    
H           95.72       6.72        39.27       
H           97.05       6.01        38.51       
H           96.7268     5.54938     40.18669    
H           94.39       4.14        40.52       
H           93.6        5.43        39.56       
H           93.38825    3.68128     39.12016    
H           99.49       -4.18       40.68       
H           92.33       8.1         35.47       
S           98.91       -1.44       42.94       
C           99.29       -3.23       41.15       
C           99.43       -3.02       42.52       
C           88.75       8.58        31.43       
C           89.0        9.04        32.76       
C           89.59       7.56        30.99       
N           88.29       9.97        33.48       
N           90.17       9.0         34.76       
S           88.94       10.12       34.95       
H           91.13       6.1         31.4        
H           89.37       7.1         30.07       
C           90.6        6.97        31.83       
C           90.1        8.46        33.54       
C           90.94       7.37        33.1        
C           78.11       14.98       20.33       
C           78.66       13.73       20.02       
S           78.6        15.63       21.83       
C           82.6        11.01       23.93       
C           82.15       12.28       24.28       
C           82.46       12.87       25.46       
C           83.31       12.15       26.31       
C           83.84       10.88       25.99       
C           83.48       10.27       24.74       
C           83.95       12.82       27.56       
C           84.65       11.6        28.09       
C           84.59       10.49       27.13       
C           81.87       10.59       22.65       
C           81.13       11.84       22.2        
C           81.23       12.8        23.27       
C           85.28       11.46       29.37       
C           85.98       10.31       29.56       
C           86.13       9.36        28.64       
C           85.33       9.31        27.47       
C           80.32       12.12       21.13       
C           79.6        13.35       21.04       
C           79.68       14.26       22.11       
C           80.52       13.99       23.19       
C           84.93       13.95       27.14       
C           82.84       13.38       28.44       
C           82.89       10.27       21.52       
C           80.93       9.42        22.82       
H           83.73       9.23        24.5        
H           82.06       13.84       25.73       
H           79.98       11.39       20.43       
H           80.64       14.66       24.03       
H           85.21       12.23       30.18       
H           85.43       8.5         26.79       
H           84.53       14.76       26.56       
H           85.35       14.34       28.0        
H           85.72016    13.54029    26.5108     
H           82.51       14.38       28.14       
H           83.37       13.6        29.37       
H           81.95722    12.77487    28.64646    
H           81.61       8.53        22.83       
H           80.16       9.28        22.03       
H           80.45178    9.36928     23.79818    
H           83.32       9.26        21.73       
H           82.45       10.06       20.53       
H           83.62758    11.066      21.41776    
H           86.59       10.7        31.62       
H           78.47       13.11       19.13       
S           87.35       8.18        29.13       
C           86.81       10.12       30.69       
C           87.69       9.09        30.57       
C           74.85       16.94       18.15       
C           75.79       16.13       17.42       
C           75.15       17.08       19.46       
N           75.65       15.73       16.15       
N           77.6        14.72       17.15       
S           76.85       14.7        15.7        
H           76.47       16.76       21.15       
H           74.45       17.53       20.16       
C           76.34       16.54       20.06       
C           76.91       15.44       18.07       
C           77.24       15.68       19.45       
C           59.43       13.62       14.58       
C           59.85       14.1        15.82       
S           60.47       14.39       13.39       
C           65.23       16.69       17.0        
C           64.84       16.62       15.6        
C           65.88       16.8        14.66       
C           67.16       16.92       14.99       
C           67.49       17.15       16.35       
C           66.56       16.97       17.38       
C           68.46       17.11       14.18       
C           69.5        17.43       15.24       
C           68.92       17.41       16.47       
C           64.02       16.36       17.86       
C           62.95       15.9        16.85       
C           63.46       16.1        15.54       
C           70.86       17.6        15.13       
C           71.66       17.6        16.3        
C           71.06       17.61       17.6        
C           69.67       17.49       17.66       
C           61.79       15.25       17.03       
C           61.07       14.83       15.88       
C           61.61       15.05       14.58       
C           62.73       15.8        14.38       
C           68.82       15.9        13.26       
C           68.5        18.38       13.31       
C           64.39       15.23       18.8        
C           63.6        17.6        18.65       
H           66.84       17.12       18.41       
H           65.68       16.67       13.63       
H           61.49       15.0        18.02       
H           63.07       16.04       13.38       
H           71.34       17.52       14.16       
H           69.18       17.37       18.6        
H           68.11       15.83       12.47       
H           69.83       16.17       12.78       
H           68.99565    14.97052    13.80159    
H           68.61       19.33       13.95       
H           69.45       18.31       12.73       
H           67.58937    18.53177    12.73051    
H           64.53       18.2        18.79       
H           63.24       17.44       19.67       
H           62.79288    18.2018     18.23228    
H           65.23       15.53       19.51       
H           63.48       14.99       19.32       
H           64.73199    14.3394     18.27277    
H           73.66       17.36       15.5        
H           59.33       13.74       16.71       
S           72.26       17.36       18.85       
C           73.07       17.48       16.36       
C           73.54       17.34       17.67       
C           56.14       11.04       13.23       
C           56.12       11.62       14.53       
C           57.18       11.43       12.43       
N           55.26       11.2        15.46       
N           57.04       12.64       16.39       
S           55.72       11.73       16.91       
H           59.06       12.51       12.16       
H           57.31       11.12       11.4        
C           58.25       12.38       12.86       
C           57.19       12.49       15.08       
C           58.2        12.91       14.16       
C           45.1        3.0         3.98        
C           46.43       2.73        4.06        
S           44.63       3.79        5.47        
C           50.46       5.27        7.98        
C           49.11       5.41        8.39        
C           48.75       6.28        9.41        
C           49.73       6.75        10.23       
C           51.09       6.68        9.76        
C           51.46       5.97        8.63        
C           49.62       7.57        11.55       
C           51.09       7.92        11.71       
C           51.9        7.34        10.73       
C           50.58       4.43        6.7         
C           49.09       4.02        6.47        
C           48.26       4.7         7.35        
C           51.62       8.83        12.65       
C           53.0        9.11        12.53       
C           53.74       8.54        11.5        
C           53.21       7.62        10.62       
C           48.54       3.31        5.45        
C           47.21       3.27        5.15        
C           46.32       3.97        6.0         
C           46.82       4.73        7.14        
C           48.69       8.82        11.32       
C           49.07       6.77        12.8        
C           51.03       5.24        5.46        
C           51.41       3.15        6.85        
H           52.54       5.97        8.32        
H           47.69       6.44        9.64        
H           49.22       2.68        4.87        
H           46.15       5.33        7.78        
H           51.09       9.21        13.49       
H           53.76       7.27        9.74        
H           48.16       9.1         12.24       
H           47.85       8.54        10.68       
H           49.13101    9.63695     10.74886    
H           49.81       6.07        13.16       
H           48.94       7.49        13.62       
H           48.11074    6.29037     12.60537    
H           52.45       3.45        6.96        
H           51.35       2.53        5.95        
H           51.04927    2.52064     7.66356     
H           52.08       5.45        5.51        
H           50.91       4.6         4.54        
H           50.54339    6.21322     5.3956      
H           53.36       10.72       13.99       
H           46.98       2.22        3.25        
S           55.38       9.2         11.4        
C           53.75       10.08       13.28       
C           55.01       10.24       12.77       
C           41.79       0.8         2.33        
C           43.11       0.36        1.98        
C           41.64       1.92        3.1         
N           43.38       -0.8        1.42        
N           45.42       0.59        1.95        
S           45.04       -0.77       1.2         
H           42.4        3.52        4.18        
H           40.68       2.32        3.49        
C           42.73       2.7         3.56        
C           44.25       1.12        2.45        
C           44.0        2.31        3.28        
C           26.52       -4.61       4.27        
C           26.94       -3.35       3.98        
S           27.82       -5.8        4.16        
C           32.4        -1.64       2.06        
C           32.21       -3.08       2.13        
C           33.28       -3.9        1.85        
C           34.52       -3.29       1.6         
C           34.66       -1.92       1.64        
C           33.59       -1.07       1.77        
C           35.91       -3.96       1.58        
C           36.84       -2.8        1.61        
C           36.08       -1.61       1.63        
C           31.09       -0.95       2.48        
C           30.28       -2.14       3.0         
C           30.92       -3.41       2.78        
C           38.24       -2.78       1.5         
C           38.9        -1.53       1.6         
C           38.1        -0.33       1.69        
C           36.67       -0.33       1.61        
C           28.97       -2.13       3.41        
C           28.29       -3.24       3.7         
C           28.92       -4.49       3.61        
C           30.23       -4.58       3.11        
C           36.21       -4.87       2.85        
C           36.09       -4.72       0.26        
C           31.35       0.04        3.64        
C           30.22       -0.33       1.33        
H           33.72       -0.01       1.87        
H           33.18       -4.97       2.15        
H           28.45       -1.17       3.54        
H           30.6        -5.59       2.96        
H           38.86       -3.67       1.59        
H           36.22       0.66        1.68        
H           35.42       -5.59       3.03        
H           37.1        -5.5        2.59        
H           36.45248    -4.34831    3.77582     
H           36.09       -3.98       -0.58       
H           37.11       -5.18       0.3         
H           35.36088    -5.50016    0.04126     
H           29.19       -0.16       1.44        
H           30.27       -1.09       0.51        
H           30.53967    0.64261     0.95592     
H           30.9        1.02        3.71        
H           32.34       0.27        3.45        
H           31.35       -0.40014    4.63719     
H           41.1        -1.98       1.77        
H           26.3        -2.48       4.11        
S           39.18       1.08        1.74        
C           40.29       -1.22       1.71        
C           40.63       0.09        1.92        
C           22.13       -5.52       4.51        
C           23.03       -6.24       5.32        
C           22.75       -4.69       3.6         
N           22.76       -7.07       6.42        
N           25.17       -6.84       6.07        
S           24.19       -7.62       7.0         
H           24.51       -3.86       2.82        
H           22.23       -4.17       2.83        
C           24.21       -4.45       3.6         
C           24.5        -6.08       5.18        
C           25.14       -5.02       4.38        
C           6.68        -0.65       7.95        
C           7.5         -0.03       7.08        
S           7.35        -2.21       8.54        
C           12.93       -2.32       5.57        
C           12.21       -3.1        6.49        
C           12.83       -4.14       7.1         
C           14.07       -4.57       6.63        
C           14.7        -3.89       5.57        
C           14.15       -2.8        4.99        
C           15.09       -5.5        7.31        
C           16.23       -5.46       6.32        
C           15.99       -4.46       5.38        
C           12.24       -1.02       5.19        
C           10.96       -1.16       6.02        
C           10.95       -2.4        6.74        
C           17.46       -6.1        6.51        
C           18.52       -5.66       5.62        
C           18.2        -4.64       4.69        
C           17.0        -4.04       4.54        
C           9.84        -0.31       6.09        
C           8.76        -0.77       6.82        
C           8.81        -1.98       7.62        
C           9.95        -2.8        7.57        
C           15.36       -4.83       8.71        
C           14.59       -6.93       7.46        
C           13.19       0.1         5.53        
C           11.81       -0.95       3.68        
H           14.65       -2.16       4.28        
H           12.44       -4.76       7.94        
H           9.82        0.66        5.54        
H           10.02       -3.7        8.1         
H           17.63       -6.86       7.26        
H           16.83       -3.21       3.76        
H           15.25       -5.39       9.54        
H           14.64       -4.05       8.94        
H           16.36362    -4.41244    8.79058     
H           13.8        -7.03       8.22        
H           15.39       -7.66       7.71        
H           14.06287    -7.30754    6.58382     
H           12.66       -0.61       3.06        
H           11.0        -0.24       3.61        
H           11.46462    -1.94296    3.39218     
H           14.13       0.11        4.88        
H           12.59       1.03        5.42        
H           13.46891    0.02848     6.58128     
H           20.31       -6.87       6.22        
H           7.36        0.96        6.79        
S           19.67       -4.22       3.87        
C           19.88       -6.09       5.54        
C           20.64       -5.43       4.67        
C           2.53        0.57        8.73        
C           3.15        -0.33       9.64        
C           3.26        1.01        7.68        
N           2.52        -0.94       10.75       
N           4.95        -1.67       10.3        
S           3.73        -1.8        11.42       
H           5.05        1.06        6.51        
H           2.92        1.83        7.08        
C           4.61        0.6         7.43        
C           4.54        -0.82       9.32        
C           5.29        -0.23       8.25        
C           -12.92      5.61        11.94       
C           -12.23      4.66        12.58       
S           -11.91      6.31        10.71       
C           -6.66       2.8         11.18       
C           -7.16       3.9         10.46       
C           -6.33       4.55        9.53        
C           -5.07       4.03        9.24        
C           -4.64       2.9         10.01       
C           -5.41       2.32        10.99       
C           -4.02       4.54        8.28        
C           -2.96       3.5         8.54        
C           -3.33       2.58        9.55        
C           -7.6        2.4         12.34       
C           -8.75       3.33        12.09       
C           -8.47       4.26        11.04       
C           -1.7        3.34        7.99        
C           -0.84       2.41        8.47        
C           -1.27       1.49        9.44        
C           -2.48       1.5         9.99        
C           -10.01      3.47        12.73       
C           -10.91      4.44        12.23       
C           -10.55      5.35        11.22       
C           -9.36       5.27        10.56       
C           -4.54       4.59        6.87        
C           -3.54       6.01        8.7         
C           -8.14       0.96        12.19       
C           -6.93       2.62        13.71       
H           -5.12       1.44        11.45       
H           -6.73       5.34        8.88        
H           -10.25      2.85        13.58       
H           -9.16       5.99        9.81        
H           -1.46       3.97        7.11        
H           -2.78       0.8         10.76       
H           -4.1        5.54        6.51        
H           -5.66       4.71        7.05        
H           -4.39831    3.6832      6.282       
H           -4.38       6.64        8.67        
H           -2.94       6.51        8.0         
H           -3.09248    6.12365     9.68738     
H           -5.97       2.13        13.86       
H           -6.61       3.68        13.58       
H           -7.49804    2.31569     14.58911    
H           -8.36       0.49        13.16       
H           -7.34       0.27        11.74       
H           -8.97503    0.84482     11.49894    
H           1.15        2.89        7.64        
H           -12.68      4.03        13.37       
S           -0.07       0.25        9.76        
C           0.6         2.16        8.27        
C           1.16        1.12        8.83        
C           -16.99      7.18        11.8        
C           -16.65      6.21        12.73       
C           -15.94      7.59        11.08       
N           -17.41      5.76        13.7        
N           -15.21      4.65        13.69       
S           -16.56      4.7         14.62       
H           -13.92      7.74        10.62       
H           -16.06      8.48        10.4        
C           -14.6       7.09        11.1        
C           -15.34      5.6         12.79       
C           -14.24      6.15        11.99       
C           -31.04      13.58       7.75        
C           -29.99      13.37       6.89        
S           -30.41      13.99       9.38        
C           -24.29      12.78       8.4         
C           -25.12      13.23       9.44        
C           -24.75      13.03       10.77       
C           -23.73      12.19       11.02       
C           -22.9       11.77       9.98        
C           -23.12      12.08       8.65        
C           -23.33      11.5        12.36       
C           -22.11      10.62       11.86       
C           -21.79      10.92       10.51       
C           -25.07      12.76       7.05        
C           -26.28      13.56       7.46        
C           -26.37      13.7        8.86        
C           -21.37      9.77        12.64       
C           -20.19      9.16        12.09       
C           -19.97      9.32        10.68       
C           -20.74      10.21       9.9         
C           -27.47      13.56       6.74        
C           -28.68      13.65       7.38        
C           -28.72      13.98       8.77        
C           -27.56      13.95       9.49        
C           -22.85      12.43       13.54       
C           -24.37      10.41       12.85       
C           -24.18      13.51       6.01        
C           -25.57      11.36       6.57        
H           -22.43      11.79       7.87        
H           -25.57      13.28       11.51       
H           -27.45      13.35       5.68        
H           -27.55      14.03       10.6        
H           -21.54      9.72        13.72       
H           -20.5       10.35       8.85        
H           -23.64      12.99       13.97       
H           -22.48      11.71       14.25       
H           -22.03373   13.09721    13.26318    
H           -24.45      9.55        12.26       
H           -24.03      10.09       13.76       
H           -25.33046   10.85385    13.11194    
H           -26.24      11.44       5.69        
H           -25.97      10.81       7.42        
H           -24.80999   10.70458    6.14467     
H           -24.21      13.04       5.02        
H           -23.19      13.35       6.35        
H           -24.28703   14.59452    5.98859     
H           -19.09      8.08        13.65       
H           -30.06      13.02       5.86        
S           -18.69      8.41        10.07       
C           -19.2       8.3         12.62       
C           -18.25      7.89        11.67       
C           -35.29      12.56       7.39        
C           -34.4       12.08       6.44        
C           -34.74      13.32       8.34        
N           -34.75      11.46       5.31        
N           -32.28      11.83       5.58        
S           -33.3       11.1        4.56        
H           -33.15      14.09       9.39        
H           -35.38      13.57       9.15        
C           -33.35      13.65       8.48        
C           -32.99      12.42       6.51        
C           -32.45      13.19       7.62        
C           -49.29      5.03        3.03        
C           -48.06      4.51        3.03        
S           -49.41      6.38        4.16        
C           -43.11      7.2         5.63        
C           -44.35      7.95        5.69        
C           -44.37      9.22        6.15        
C           -43.2       9.79        6.6         
C           -41.95      8.96        6.66        
C           -41.93      7.72        6.13        
C           -42.82      11.31       6.82        
C           -41.34      11.15       7.21        
C           -40.91      9.78        7.11        
C           -43.37      5.94        4.82        
C           -44.92      5.94        4.62        
C           -45.46      7.15        5.2         
C           -40.39      12.22       7.53        
C           -39.01      11.87       7.55        
C           -38.65      10.47       7.4         
C           -39.58      9.45        7.2         
C           -45.72      5.05        3.89        
C           -47.08      5.28        3.77        
C           -47.65      6.45        4.41        
C           -46.86      7.39        5.15        
C           -43.07      12.16       5.64        
C           -43.65      11.78       8.04        
C           -42.69      5.94        3.43        
C           -42.86      4.68        5.53        
H           -40.99      7.19        5.96        
H           -45.34      9.69        6.38        
H           -45.32      4.14        3.47        
H           -47.28      8.3         5.45        
H           -40.77      13.22       7.6         
H           -39.17      8.44        7.03        
H           -42.71      13.12       5.83        
H           -44.16      12.26       5.67        
H           -42.57436   11.75774    4.75647     
H           -44.7       11.95       7.76        
H           -43.28      12.82       8.41        
H           -43.52256   11.1003     8.88254     
H           -41.8       4.64        5.63        
H           -43.03      3.79        5.0         
H           -43.28979   4.59681     6.52823     
H           -41.56      5.96        3.52        
H           -43.02      5.13        2.94        
H           -42.93687   6.75322     2.74748     
H           -37.88      13.87       7.63        
H           -47.79      3.68        2.5         
S           -36.93      10.31       7.38        
C           -37.87      12.73       7.64        
C           -36.66      12.03       7.52        
C           -52.74      3.54        0.75        
C           -51.42      3.85        0.12        
C           -52.79      3.78        2.07        
N           -51.06      3.64        -1.18       
N           -49.22      4.5         0.2         
S           -49.56      4.17        -1.41       
H           -51.83      4.5         3.85        
H           -53.67      3.42        2.58        
C           -51.72      4.43        2.79        
C           -50.34      4.4         0.87        
C           -50.47      4.67        2.25        
C           -66.6       -1.04       -7.55       
C           -66.56      -0.34       -6.4        
S           -64.95      -1.39       -8.09       
C           -61.65      1.25        -3.37       
C           -61.42      0.96        -4.75       
C           -60.1       0.95        -5.17       
C           -59.08      1.31        -4.37       
C           -59.27      1.39        -2.98       
C           -60.62      1.41        -2.47       
C           -57.63      1.7         -4.69       
C           -57.04      1.58        -3.27       
C           -58.0       1.67        -2.27       
C           -63.08      1.1         -2.99       
C           -63.65      0.75        -4.37       
C           -62.63      0.58        -5.39       
C           -55.71      1.83        -3.0        
C           -55.32      2.17        -1.68       
C           -56.27      2.2         -0.61       
C           -57.65      1.95        -0.9        
C           -64.94      0.61        -4.73       
C           -65.26      -0.02       -5.91       
C           -64.24      -0.36       -6.87       
C           -62.92      0.05        -6.62       
C           -57.23      0.65        -5.84       
C           -57.48      3.12        -5.26       
C           -63.27      -0.11       -1.98       
C           -63.7       2.43        -2.55       
H           -60.73      1.57        -1.37       
H           -59.92      0.88        -6.27       
H           -65.72      0.71        -4.0        
H           -62.16      -0.28       -7.18       
H           -55.03      1.74        -3.81       
H           -58.41      2.08        -0.15       
H           -57.28      1.05        -6.82       
H           -57.91      -0.14       -5.88       
H           -56.28329   0.1375      -5.66917    
H           -57.65      3.81        -4.4        
H           -56.41      3.33        -5.54       
H           -58.24057   3.42423     -5.97908    
H           -64.84      2.48        -2.61       
H           -63.43      3.22        -3.22       
H           -63.37927   2.72934     -1.55219    
H           -64.09      -0.01       -1.39       
H           -62.37      -0.34       -1.42       
H           -63.3055    -1.09685    -2.44148    
H           -53.21      2.65        -1.97       
H           -67.49      -0.12       -5.83       
S           -55.45      2.76        0.84        
C           -54.01      2.59        -1.26       
C           -53.87      3.0         0.06        
C           -69.87      -3.26       -9.62       
C           -69.96      -2.76       -8.31       
C           -68.67      -2.95       -10.21      
N           -71.07      -3.01       -7.53       
N           -69.29      -1.73       -6.28       
S           -70.92      -2.13       -6.15       
H           -66.72      -2.01       -10.01      
H           -68.43      -3.41       -11.19      
C           -67.59      -2.26       -9.49       
C           -68.95      -2.05       -7.59       
C           -67.74      -1.74       -8.26       
H           99.88       -3.75       43.24       
H           -70.8       -3.33       -10.24      
