612

C           54.41       99.58       85.41       
C           55.81       99.42       85.45       
S           53.79       98.9        83.89       
C           59.17       96.55       81.13       
C           57.74       96.57       80.95       
C           57.12       95.82       79.97       
C           58.0        95.25       79.0        
C           59.45       95.34       79.13       
C           60.1        95.95       80.25       
C           57.61       94.38       77.74       
C           59.04       94.06       77.2        
C           60.05       94.76       77.92       
C           59.51       97.31       82.41       
C           58.11       97.78       82.91       
C           57.12       97.41       81.99       
C           59.38       93.45       75.98       
C           60.8        93.3        75.61       
C           61.73       94.02       76.29       
C           61.38       94.78       77.44       
C           57.72       98.42       84.08       
C           56.33       98.78       84.31       
C           55.4        98.39       83.34       
C           55.77       97.73       82.18       
C           56.84       93.08       78.13       
C           56.83       95.31       76.73       
C           60.09       96.42       83.55       
C           60.55       98.36       82.02       
H           61.15       96.05       80.32       
H           56.0        95.77       79.92       
H           58.48       98.75       84.83       
H           55.03       97.48       81.43       
H           58.66       93.05       75.29       
H           62.12       95.36       78.0        
H           55.85       93.34       78.68       
H           56.62       92.51       77.21       
H           57.40962    92.38781    78.75009    
H           57.49       96.17       76.53       
H           56.75       94.79       75.74       
H           55.83178    95.64035    77.01726    
H           61.54       98.03       81.72       
H           60.66       99.07       82.83       
H           60.14806    99.044      81.27254    
H           60.95       95.85       83.09       
H           60.49       96.94       84.36       
H           59.38012    95.65444    83.86318    
H           60.8        91.94       73.89       
H           56.38       99.81       86.28       
S           63.39       93.73       75.73       
C           61.36       92.58       74.5        
C           62.71       92.61       74.54       
C           51.28       101.74      87.79       
C           52.63       102.11      87.91       
C           51.07       100.66      86.93       
N           53.15       103.16      88.67       
N           54.86       102.04      87.29       
S           54.69       103.36      88.21       
H           51.74       99.22       85.51       
H           50.05       100.29      86.81       
C           52.09       99.96       86.18       
C           53.65       101.44      87.12       
C           53.42       100.35      86.18       
C           37.61       108.31      94.2        
C           38.0        106.97      94.2        
S           38.88       109.26      93.43       
C           42.95       104.85      91.58       
C           42.74       106.23      91.35       
C           43.78       106.96      90.84       
C           44.98       106.34      90.58       
C           45.06       104.94      90.63       
C           44.06       104.23      91.13       
C           46.28       106.98      90.14       
C           47.1        105.7       89.96       
C           46.26       104.51      89.93       
C           41.81       104.23      92.44       
C           40.82       105.39      92.55       
C           41.36       106.49      91.88       
C           48.4        105.49      89.52       
C           48.8        104.17      89.21       
C           47.95       103.07      89.24       
C           46.63       103.22      89.6        
C           39.66       105.4       93.31       
C           39.15       106.65      93.49       
C           39.69       107.79      92.9        
C           40.8        107.73      92.01       
C           46.19       107.76      88.78       
C           46.91       107.91      91.26       
C           41.21       103.02      91.73       
C           42.36       103.95      93.84       
H           44.15       103.16      91.19       
H           43.79       108.0       90.72       
H           39.39       104.51      93.89       
H           41.25       108.58      91.59       
H           49.13       106.3       89.5        
H           45.98       102.36      89.8        
H           45.28       108.32      88.69       
H           47.01       108.48      88.65       
H           46.17602    107.03982   87.96193    
H           47.09       107.28      92.15       
H           47.88       108.24      90.9        
H           46.31214    108.78157   91.52651    
H           41.55       104.12      94.51       
H           43.14       104.74      94.02       
H           42.90324    103.01768   93.99416    
H           42.05       102.36      91.47       
H           40.56       102.53      92.44       
H           40.74354    103.264     90.77555    
H           50.89       104.48      88.57       
H           37.44       106.19      94.68       
S           48.81       101.56      88.78       
C           50.09       103.8       88.73       
C           50.13       102.52      88.24       
C           35.04       110.32      97.12       
C           35.5        110.99      95.95       
C           35.39       108.97      97.1        
N           35.32       112.27      95.68       
N           36.37       111.17      93.8        
S           35.77       112.61      94.17       
H           36.64       107.4       96.38       
H           35.09       108.33      97.9        
C           36.23       108.4       96.17       
C           36.17       110.35      94.85       
C           36.67       108.99      95.01       
C           25.25       115.12      109.54      
C           26.05       114.06      109.63      
S           25.48       115.94      108.02      
C           30.23       112.74      105.46      
C           29.5        113.9       105.19      
C           29.79       114.69      104.12      
C           30.67       114.2       103.15      
C           31.24       112.92      103.32      
C           31.03       112.21      104.46      
C           30.98       114.77      101.8       
C           31.82       113.66      101.22      
C           31.93       112.52      102.1       
C           29.8        112.03      106.72      
C           28.71       112.99      107.2       
C           28.51       114.01      106.26      
C           32.35       113.63      99.94       
C           33.09       112.47      99.55       
C           33.08       111.34      100.42      
C           32.59       111.38      101.73      
C           27.98       112.91      108.33      
C           27.0        113.91      108.54      
C           26.77       114.91      107.52      
C           27.59       115.02      106.39      
C           29.74       115.12      100.81      
C           32.0        115.93      101.9       
C           29.33       110.61      106.42      
C           31.07       111.89      107.66      
H           31.53       111.28      104.62      
H           29.51       115.73      104.08      
H           28.15       112.1       109.07      
H           27.39       115.66      105.58      
H           32.24       114.53      99.28       
H           32.71       110.55      102.38      
H           29.36       116.16      101.08      
H           30.06       115.31      99.75       
H           28.89013    114.44298   100.89643   
H           32.86       115.57      102.42      
H           32.35       116.26      100.96      
H           31.65589    116.80462   102.45202   
H           31.52       110.89      107.57      
H           30.89       112.01      108.7       
H           31.89306    112.56866   107.43619   
H           30.15       109.92      106.2       
H           28.85       110.18      107.31      
H           28.57025    110.59553   105.63854   
H           33.68       112.96      97.5        
H           26.03       113.4       110.46      
S           34.03       110.07      99.68       
C           33.68       112.22      98.32       
C           34.21       110.94      98.18       
C           22.94       116.84      112.89      
C           22.85       115.44      112.61      
C           23.53       117.56      111.88      
N           22.32       114.55      113.41      
N           23.63       113.56      111.61      
S           22.75       113.05      112.9       
H           24.66       117.6       110.02      
H           23.59       118.65      112.01      
C           24.15       116.97      110.73      
C           23.58       114.87      111.48      
C           24.25       115.62      110.52      
C           18.48       125.72      126.02      
C           19.28       126.26      125.07      
S           18.29       124.03      125.76      
C           21.33       123.01      120.42      
C           20.78       122.24      121.45      
C           20.64       120.84      121.48      
C           21.11       120.18      120.34      
C           21.59       120.95      119.27      
C           21.59       122.33      119.28      
C           21.11       118.66      120.06      
C           21.52       118.69      118.63      
C           21.88       120.01      118.22      
C           21.37       124.48      120.81      
C           21.02       124.46      122.26      
C           20.47       123.18      122.48      
C           21.75       117.6       117.8       
C           22.14       117.81      116.45      
C           22.34       119.19      116.02      
C           22.31       120.21      116.89      
C           20.83       125.5       123.19      
C           19.81       125.29      124.19      
C           19.31       123.98      124.34      
C           19.71       122.9       123.59      
C           22.26       118.09      120.9       
C           19.74       117.97      120.06      
C           22.77       125.05      120.6       
C           20.24       125.18      120.06      
H           22.02       122.83      118.46      
H           20.14       120.27      122.29      
H           21.26       126.48      122.99      
H           19.25       121.94      123.9       
H           21.57       116.58      118.06      
H           22.51       121.18      116.5       
H           21.99       117.82      121.95      
H           22.6        117.14      120.35      
H           23.11423    118.75362   121.03414   
H           19.28       118.5       119.21      
H           19.74       116.91      119.85      
H           19.16964    118.15772   120.9697    
H           20.05       126.07      120.61      
H           19.33       124.52      120.18      
H           20.35713    125.40047   118.99898   
H           22.85       125.36      119.6       
H           22.69       126.0       121.15      
H           23.61536    124.51269   121.02984   
H           21.92       115.85      115.43      
H           19.42       127.29      124.98      
S           22.79       119.17      114.34      
C           22.1        116.91      115.32      
C           22.61       117.44      114.16      
C           15.19       127.64      128.44      
C           15.8        126.42      128.88      
C           15.87       128.23      127.36      
N           15.32       125.66      129.87      
N           17.17       124.54      128.54      
S           16.21       124.29      129.82      
H           17.31       128.16      125.7       
H           15.57       129.19      127.11      
C           17.06       127.67      126.68      
C           16.86       125.77      128.08      
C           17.48       126.36      126.9       
C           -0.19       133.84      130.23      
C           0.07        132.5       130.14      
S           1.24        134.76      130.07      
C           5.67        130.19      129.91      
C           5.58        131.56      129.98      
C           6.73        132.37      129.99      
C           7.97        131.71      129.94      
C           8.0         130.28      129.58      
C           6.82        129.51      129.5       
C           9.37        132.29      130.08      
C           10.21       131.13      129.57      
C           9.41        129.95      129.43      
C           4.31        129.59      130.14      
C           3.39        130.78      130.07      
C           4.18        131.98      130.07      
C           11.59       131.07      129.37      
C           12.26       129.77      129.25      
C           11.39       128.65      129.13      
C           10.02       128.67      129.27      
C           2.07        130.91      130.02      
C           1.45        132.17      130.16      
C           2.27        133.34      130.2       
C           3.62        133.29      130.19      
C           9.55        133.48      129.13      
C           9.63        132.54      131.63      
C           3.91        128.59      129.02      
C           4.18        128.91      131.53      
H           6.88        128.52      129.23      
H           6.54        133.43      130.15      
H           1.46        130.05      129.94      
H           4.19        134.16      130.21      
H           12.17       131.99      129.35      
H           9.42        127.78      129.29      
H           8.78        134.19      129.32      
H           10.5        133.92      129.26      
H           9.46051     133.14268   128.09738   
H           9.19        133.51      131.94      
H           10.66       132.68      131.83      
H           9.23601     131.76635   132.28904   
H           3.52        128.03      131.45      
H           3.76        129.58      132.34      
H           5.103       128.52137   131.96027   
H           4.72        127.83      129.04      
H           2.96        128.05      129.32      
H           3.83473     129.11692   128.0688    
H           14.45       130.24      129.0       
H           -0.66       131.73      130.18      
S           12.47       127.25      129.0       
C           13.65       129.49      129.11      
C           13.98       128.18      129.02      
C           -4.11       135.59      130.01      
C           -3.12       136.34      130.68      
C           -3.71       134.44      129.42      
N           -3.24       137.58      131.17      
N           -0.96       136.57      131.51      
S           -1.77       138.01      131.69      
H           -2.16       133.04      129.0       
H           -4.35       133.86      128.72      
C           -2.39       133.96      129.5       
C           -1.73       135.8       130.74      
C           -1.45       134.5       130.25      
C           -19.77      140.99      128.51      
C           -18.74      141.91      128.66      
S           -19.16      139.49      128.0       
C           -12.89      140.07      128.66      
C           -13.8       139.06      128.26      
C           -13.48      137.7       128.06      
C           -12.2       137.39      128.32      
C           -11.27      138.37      128.8       
C           -11.65      139.72      129.0       
C           -11.51      136.12      127.94      
C           -10.08      136.28      128.64      
C           -10.0       137.61      129.14      
C           -13.55      141.43      128.84      
C           -15.04      141.04      128.57      
C           -15.14      139.68      128.11      
C           -8.95       135.41      128.69      
C           -7.73       135.92      129.24      
C           -7.74       137.2       129.78      
C           -8.83       138.04      129.78      
C           -16.18      141.83      128.65      
C           -17.45      141.26      128.43      
C           -17.46      139.9       128.09      
C           -16.35      139.12      127.88      
C           -12.28      134.89      128.48      
C           -11.21      136.11      126.4       
C           -13.37      141.94      130.32      
C           -13.07      142.54      127.9       
H           -10.91      140.44      129.35      
H           -14.09      136.91      127.69      
H           -16.13      142.85      129.02      
H           -16.48      138.06      127.57      
H           -9.04       134.4       128.33      
H           -8.78       139.06      130.33      
H           -13.18      134.71      127.88      
H           -11.56      134.06      128.47      
H           -12.4749    134.98384   129.54832   
H           -10.69      137.08      126.21      
H           -10.61      135.21      126.2       
H           -12.07376   136.14569   125.73612   
H           -13.09      143.58      128.38      
H           -13.76      142.55      127.04      
H           -12.05475   142.40563   127.52675   
H           -12.35      142.2       130.49      
H           -13.85      142.88      130.34      
H           -13.7183    141.25066   131.08916   
H           -6.28       134.34      128.86      
H           -18.93      142.95      128.78      
S           -6.16       137.66      130.33      
C           -6.44       135.34      129.21      
C           -5.49       136.05      129.74      
C           -24.03      141.44      129.61      
C           -23.2       142.52      129.13      
C           -23.34      140.29      129.72      
N           -23.68      143.76      129.06      
N           -21.26      143.61      128.58      
S           -22.43      144.75      128.59      
H           -21.5       139.25      129.51      
H           -23.89      139.38      130.03      
C           -21.98      140.15      129.26      
C           -21.82      142.42      128.7       
C           -21.16      141.15      128.76      
C           -40.57      141.21      130.5       
C           -39.87      140.18      130.07      
S           -39.54      142.55      130.89      
C           -33.77      140.19      129.89      
C           -34.33      141.4       130.34      
C           -33.51      142.41      130.87      
C           -32.15      142.31      130.74      
C           -31.59      141.19      130.15      
C           -32.36      140.01      129.84      
C           -31.14      143.48      130.94      
C           -29.91      142.7       130.56      
C           -30.15      141.38      130.09      
C           -34.81      139.19      129.48      
C           -36.07      140.02      129.79      
C           -35.79      141.32      130.31      
C           -28.62      143.23      130.62      
C           -27.6       142.34      130.22      
C           -27.89      141.04      129.78      
C           -29.16      140.53      129.73      
C           -37.37      139.54      129.79      
C           -38.41      140.38      130.11      
C           -38.04      141.64      130.63      
C           -36.8       142.19      130.78      
C           -31.36      144.55      129.83      
C           -30.91      144.04      132.38      
C           -34.89      138.71      128.03      
C           -34.72      138.01      130.47      
H           -31.89      139.11      129.43      
H           -33.91      143.27      131.37      
H           -37.59      138.45      129.48      
H           -36.76      143.23      131.14      
H           -28.3       144.2       131.06      
H           -29.28      139.54      129.46      
H           -32.34      145.07      130.03      
H           -30.63      145.35      129.81      
H           -31.30325   144.23787   128.78719   
H           -30.66      143.11      132.91      
H           -30.03      144.57      132.45      
H           -31.74719   144.51839   132.88829   
H           -34.01      137.23      130.14      
H           -35.67      137.49      130.55      
H           -34.43164   138.19989   131.50387   
H           -34.06      138.08      127.88      
H           -35.79      138.08      127.8       
H           -34.94015   139.54823   127.33505   
H           -25.92      143.54      130.53      
H           -40.24      139.24      129.65      
S           -26.38      140.2       129.49      
C           -26.22      142.59      130.23      
C           -25.44      141.57      129.95      
C           -44.92      141.24      130.33      
C           -44.29      142.2       131.07      
C           -44.11      140.37      129.67      
N           -44.93      143.18      131.69      
N           -42.45      143.41      131.81      
S           -43.79      144.29      132.2       
H           -42.15      139.54      129.39      
H           -44.47      139.53      129.05      
C           -42.7       140.39      129.84      
C           -42.83      142.33      131.17      
C           -42.02      141.31      130.53      
C           -59.63      134.51      133.09      
C           -58.64      133.86      132.48      
S           -59.47      136.23      132.96      
C           -53.69      136.59      130.44      
C           -54.7       137.54      130.76      
C           -54.46      138.88      130.85      
C           -53.11      139.29      130.72      
C           -52.05      138.37      130.41      
C           -52.37      136.98      130.25      
C           -52.59      140.72      130.88      
C           -51.1       140.5       130.47      
C           -50.82      139.16      130.24      
C           -54.13      135.17      130.73      
C           -55.67      135.34      130.83      
C           -55.91      136.72      131.03      
C           -50.05      141.39      130.6       
C           -48.74      141.0       130.45      
C           -48.5       139.68      130.07      
C           -49.54      138.77      129.97      
C           -56.59      134.31      131.13      
C           -57.71      134.72      131.86      
C           -57.99      136.1       132.02      
C           -57.11      137.12      131.56      
C           -53.29      141.71      129.88      
C           -52.67      141.27      132.29      
C           -53.78      134.16      129.63      
C           -53.54      134.62      132.06      
H           -51.56      136.23      130.03      
H           -55.29      139.62      131.01      
H           -56.35      133.28      131.18      
H           -57.38      138.18      131.53      
H           -50.2       142.37      130.98      
H           -49.26      137.75      129.86      
H           -53.09      142.74      130.12      
H           -54.33      141.5       129.88      
H           -52.99671   141.49004   128.8535    
H           -53.64      141.81      132.34      
H           -51.9       141.95      132.6       
H           -52.85208   140.49965   133.03934   
H           -52.53      134.3       131.82      
H           -54.16      133.74      132.33      
H           -53.43171   135.4358    132.77473   
H           -52.72      134.2       129.46      
H           -53.98      133.11      129.98      
H           -54.27782   134.36742   128.68277   
H           -47.38      142.63      131.09      
H           -58.62      132.76      132.49      
S           -46.79      139.31      129.87      
C           -47.44      141.67      130.67      
C           -46.37      140.93      130.33      
C           -63.19      132.91      135.02      
C           -61.9       132.42      135.42      
C           -63.26      133.89      134.07      
N           -61.72      131.42      136.28      
N           -59.62      132.15      135.06      
S           -60.09      131.22      136.3       
H           -62.3       135.23      132.8       
H           -64.24      134.39      133.92      
C           -62.1       134.44      133.46      
C           -60.7       132.92      134.69      
C           -60.77      134.02      133.76      
C           -78.78      133.72      138.61      
C           -78.27      133.15      137.44      
S           -77.54      133.64      139.84      
C           -72.47      131.57      136.71      
C           -72.81      131.94      138.05      
C           -71.81      132.17      139.02      
C           -70.46      132.05      138.58      
C           -70.15      131.7       137.25      
C           -71.18      131.5       136.27      
C           -69.17      132.0       139.48      
C           -68.15      132.2       138.36      
C           -68.75      131.76      137.11      
C           -73.73      131.6       135.77      
C           -74.8       131.9       136.79      
C           -74.27      132.13      138.1       
C           -66.79      132.26      138.39      
C           -66.08      132.16      137.18      
C           -66.75      131.98      135.95      
C           -68.12      131.67      135.93      
C           -76.13      132.01      136.53      
C           -76.96      132.6       137.56      
C           -76.38      132.87      138.84      
C           -75.03      132.52      139.1       
C           -69.13      133.09      140.56      
C           -68.9       130.55      140.07      
C           -73.45      132.64      134.66      
C           -74.06      130.16      135.21      
H           -70.98      131.27      135.18      
H           -72.11      132.37      140.05      
H           -76.59      131.88      135.63      
H           -74.59      132.8       140.04      
H           -66.28      132.36      139.39      
H           -68.63      131.25      135.03      
H           -69.86      132.71      141.34      
H           -68.23      133.22      141.12      
H           -69.45103   134.10302   140.31745   
H           -68.9       129.94      139.14      
H           -67.95      130.43      140.52      
H           -69.69458   130.19924   140.72857   
H           -74.94      130.23      134.53      
H           -74.38      129.54      136.04      
H           -73.21558   129.71668   134.68224   
H           -72.52      132.37      134.14      
H           -73.25      133.59      135.0       
H           -74.27428   132.71168   133.9504    
H           -63.87      132.47      137.71      
H           -78.78      133.1       136.49      
S           -65.71      132.15      134.56      
C           -64.68      132.37      136.94      
C           -64.4       132.49      135.61      
C           -82.33      136.36      138.86      
C           -81.66      135.91      140.07      
C           -81.72      135.93      137.71      
N           -81.98      136.23      141.35      
N           -80.17      134.5       141.26      
S           -80.96      135.42      142.38      
H           -80.04      135.01      136.71      
H           -81.95      136.37      136.78      
C           -80.57      135.03      137.67      
C           -80.59      134.92      140.02      
C           -80.02      134.54      138.78      
C           -95.59      146.21      137.07      
C           -94.91      145.62      136.02      
S           -94.98      145.56      138.57      
C           -90.16      141.91      136.7       
C           -90.67      142.4       137.87      
C           -90.14      142.0       139.12      
C           -89.06      141.16      139.16      
C           -88.48      140.7       137.99      
C           -89.09      141.08      136.75      
C           -88.1       141.11      140.3       
C           -87.09      140.09      139.77      
C           -87.29      139.94      138.39      
C           -90.98      142.29      135.46      
C           -92.03      143.22      136.13      
C           -91.84      143.22      137.51      
C           -85.98      139.51      140.35      
C           -85.2       138.68      139.49      
C           -85.29      138.64      138.08      
C           -86.32      139.37      137.51      
C           -93.03      143.93      135.53      
C           -93.9       144.68      136.36      
C           -93.67      144.68      137.79      
C           -92.64      143.96      138.36      
C           -87.44      142.51      140.45      
C           -88.77      140.6       141.61      
C           -90.07      143.15      134.47      
C           -91.6       141.16      134.59      
H           -88.59      140.73      135.81      
H           -90.66      142.23      140.1       
H           -93.16      143.98      134.44      
H           -92.31      144.01      139.35      
H           -85.87      139.41      141.45      
H           -86.49      139.44      136.42      
H           -88.03      143.11      141.09      
H           -87.24      143.02      139.52      
H           -86.45826   142.48091   140.92269   
H           -89.61      141.19      141.99      
H           -87.93      140.61      142.27      
H           -89.13104   139.57351   141.54629   
H           -91.1       141.11      133.59      
H           -92.61      141.5       134.42      
H           -91.58572   140.23177   135.16122   
H           -89.35      142.48      133.89      
H           -90.74      143.41      133.69      
H           -89.53769   144.02759   134.83686   
H           -83.73      137.87      140.93      
H           -95.07      145.89      135.01      
S           -84.12      137.7       137.26      
C           -84.04      137.93      139.89      
C           -83.42      137.31      138.82      
C           -98.83      149.23      137.07      
C           -98.18      148.92      135.91      
C           -98.33      148.66      138.19      
N           -98.51      149.49      134.73      
N           -96.82      147.65      134.49      
S           -97.61      148.71      133.54      
H           -96.89      147.36      139.12      
H           -98.78      148.92      139.12      
C           -97.27      147.71      138.17      
C           -97.14      147.9       135.81      
C           -96.67      147.24      137.02      
H           63.24       91.75       74.23       
H           -99.79      149.81      137.1       
