612

C           92.66       30.18       68.12       
C           93.51       29.54       68.99       
S           91.08       30.4        68.88       
C           92.22       27.85       74.64       
C           91.25       28.74       74.1        
C           90.2        29.22       74.85       
C           90.13       28.87       76.2        
C           91.17       28.1        76.84       
C           92.23       27.56       76.02       
C           89.29       29.52       77.34       
C           89.87       28.81       78.58       
C           90.9        27.93       78.25       
C           93.22       27.37       73.54       
C           92.86       28.34       72.42       
C           91.58       28.94       72.68       
C           89.25       28.77       79.79       
C           89.89       28.02       80.8        
C           90.98       27.17       80.47       
C           91.52       27.07       79.2        
C           93.49       28.46       71.26       
C           92.89       29.14       70.24       
C           91.59       29.62       70.41       
C           90.89       29.45       71.64       
C           89.35       31.06       77.49       
C           87.81       29.13       77.32       
C           94.67       27.56       73.99       
C           92.91       25.91       73.12       
H           93.02       27.06       76.54       
H           89.53       29.95       74.41       
H           94.45       27.92       71.03       
H           89.86       29.76       71.85       
H           88.39       29.31       79.93       
H           92.39       26.41       78.99       
H           88.61       31.51       76.96       
H           88.92       31.31       78.45       
H           90.36595    31.45394    77.46236    
H           87.75       28.21       77.87       
H           87.28       29.85       78.01       
H           87.3491     28.99527    76.34147    
H           93.84       25.45       72.82       
H           92.36       25.88       72.19       
H           92.46004    25.30536    73.90743    
H           94.89       26.85       74.77       
H           95.27       27.19       73.2        
H           94.95703    28.57566    74.26231    
H           88.61       28.49       82.44       
H           94.58       29.27       68.73       
S           91.3        26.2        81.91       
C           89.42       27.87       82.14       
C           90.08       26.97       82.91       
C           93.57       32.24       64.33       
C           94.6        32.03       65.33       
C           92.39       31.71       64.65       
N           95.88       32.49       65.26       
N           95.38       31.45       67.52       
S           96.56       32.31       66.78       
H           91.21       30.54       66.02       
H           91.54       31.69       63.96       
C           92.17       31.03       65.83       
C           94.33       31.43       66.63       
C           93.06       30.89       66.87       
C           91.12       40.47       49.92       
C           90.43       39.33       50.36       
S           92.69       40.67       50.79       
C           92.17       36.07       55.33       
C           93.0        37.19       55.05       
C           93.94       37.64       55.98       
C           94.12       36.97       57.21       
C           93.29       35.83       57.53       
C           92.26       35.46       56.63       
C           95.13       37.1        58.39       
C           94.63       36.07       59.39       
C           93.52       35.36       58.89       
C           91.04       35.96       54.24       
C           91.4        37.06       53.3        
C           92.54       37.77       53.76       
C           95.04       35.73       60.67       
C           94.42       34.66       61.42       
C           93.29       34.02       60.8        
C           92.84       34.36       59.55       
C           90.65       37.54       52.17       
C           91.09       38.71       51.51       
C           92.28       39.36       51.91       
C           92.95       38.92       53.08       
C           96.63       36.75       57.96       
C           95.04       38.47       59.1        
C           91.0        34.55       53.63       
C           89.67       36.23       54.83       
H           91.69       34.61       56.93       
H           94.58       38.64       55.91       
H           89.76       37.06       51.8        
H           93.78       39.52       53.4        
H           95.96       36.18       61.0        
H           92.08       33.81       59.01       
H           97.05       37.55       57.29       
H           97.28       36.89       58.76       
H           96.68726    35.76937    57.48758    
H           93.95       38.67       59.37       
H           95.51       38.37       60.04       
H           95.43915    39.30394    58.52266    
H           89.28       35.26       55.31       
H           89.03       36.45       54.01       
H           89.57018    37.03572    55.55729    
H           90.48       33.89       54.3        
H           90.45       34.71       52.71       
H           91.96758    34.06268    53.50994    
H           95.36       34.47       63.46       
H           89.52       38.95       49.91       
S           92.62       32.75       61.77       
C           94.65       34.08       62.73       
C           93.72       33.12       63.16       
C           90.73       43.08       46.37       
C           89.64       42.19       46.75       
C           91.8        43.1        47.15       
N           88.44       42.13       46.12       
N           88.62       40.65       48.17       
S           87.55       40.97       46.91       
H           92.86       42.33       48.77       
H           92.66       43.79       47.0        
C           91.91       42.28       48.29       
C           89.73       41.39       47.98       
C           90.89       41.39       48.81       
C           88.94       52.94       33.29       
C           88.85       53.51       34.5        
S           88.78       51.21       33.3        
C           88.89       50.02       39.53       
C           88.72       49.27       38.28       
C           88.67       47.91       38.18       
C           89.1        47.19       39.27       
C           89.36       47.83       40.52       
C           89.27       49.22       40.64       
C           89.29       45.71       39.35       
C           89.62       45.5        40.8        
C           89.74       46.78       41.46       
C           89.24       51.48       39.26       
C           88.76       51.59       37.8        
C           88.62       50.28       37.24       
C           89.85       44.39       41.48       
C           90.18       44.42       42.85       
C           90.31       45.71       43.48       
C           90.13       46.91       42.81       
C           88.73       52.71       36.99       
C           88.71       52.55       35.59       
C           88.59       51.24       35.05       
C           88.53       50.12       35.86       
C           87.97       45.12       38.84       
C           90.49       45.24       38.44       
C           88.38       52.36       40.27       
C           90.78       51.73       39.4        
H           89.35       49.68       41.59       
H           88.56       47.42       37.2        
H           88.78       53.69       37.51       
H           88.65       49.1        35.41       
H           89.64       43.42       40.99       
H           90.22       47.9        43.24       
H           87.86       45.5        37.82       
H           87.11       45.57       39.39       
H           87.89909    44.03511    38.762      
H           90.22       45.45       37.45       
H           90.64       44.16       38.63       
H           91.39962    45.83021    38.5511     
H           91.19       51.38       40.33       
H           91.3        51.06       38.69       
H           91.13646    52.75572    39.30543    
H           88.85       52.22       41.24       
H           88.57       53.38       39.94       
H           87.32112    52.10225    40.2491     
H           90.26       42.33       43.68       
H           89.0        54.55       34.71       
S           90.55       45.57       45.21       
C           90.35       43.42       43.89       
C           90.62       43.85       45.1        
C           91.16       54.57       29.82       
C           90.11       55.33       30.43       
C           91.19       53.26       30.28       
N           89.74       56.56       30.16       
N           88.38       55.68       31.97       
S           88.54       57.07       31.17       
H           90.57       51.7        31.6        
H           91.95       52.57       29.85       
C           90.4        52.73       31.32       
C           89.24       54.79       31.47       
C           89.52       53.5        32.04       
C           103.67      56.8        19.22       
C           103.62      56.05       20.32       
S           102.19      57.79       19.08       
C           99.01       56.06       24.41       
C           98.8        57.01       23.38       
C           97.68       57.82       23.41       
C           96.73       57.53       24.36       
C           96.91       56.41       25.24       
C           98.07       55.72       25.3        
C           95.39       58.21       24.62       
C           94.82       57.4        25.83       
C           95.76       56.35       26.13       
C           100.41      55.45       24.41       
C           101.0       56.02       23.1        
C           100.02      56.95       22.51       
C           93.63       57.42       26.47       
C           93.33       56.35       27.39       
C           94.29       55.32       27.65       
C           95.51       55.32       27.04       
C           102.17      55.72       22.41       
C           102.43      56.3        21.17       
C           101.48      57.21       20.59       
C           100.32      57.54       21.29       
C           95.77       59.65       24.96       
C           94.51       58.12       23.36       
C           101.2       55.89       25.63       
C           100.23      53.88       24.37       
H           98.13       54.85       25.92       
H           97.59       58.62       22.75       
H           102.94      55.08       22.79       
H           99.69       58.37       20.89       
H           92.8        58.03       26.26       
H           96.11       54.49       27.13       
H           96.26       60.18       24.1        
H           96.46       59.6        25.76       
H           94.92101    60.28326    25.21748    
H           94.8        58.75       22.54       
H           93.45       58.35       23.6        
H           94.51       57.16096    22.84198    
H           99.76       53.5        25.33       
H           99.49       53.67       23.67       
H           101.12831   53.31946    24.11129    
H           101.99      55.18       25.82       
H           100.53      55.69       26.42       
H           101.48176   56.93956    25.71453    
H           91.27       56.87       28.03       
H           104.44      55.34       20.54       
S           93.65       54.24       28.84       
C           92.11       56.14       28.13       
C           92.11       55.03       28.86       
C           106.49      56.28       15.93       
C           105.67      57.47       16.02       
C           106.61      55.56       17.1        
N           105.63      58.46       15.13       
N           104.18      58.86       17.04       
S           104.6       59.58       15.62       
H           105.8       55.0        19.07       
H           107.25      54.72       17.2        
C           105.68      55.73       18.2        
C           104.87      57.71       17.21       
C           104.72      56.74       18.23       
C           114.85      55.68       1.97        
C           115.38      56.4        2.99        
S           113.53      54.68       2.57        
C           113.25      56.07       8.65        
C           112.79      55.11       7.77        
C           111.72      54.32       7.92        
C           111.04      54.44       9.21        
C           111.54      55.34       10.19       
C           112.67      56.17       9.96        
C           109.72      53.8        9.61        
C           109.6       54.42       10.98       
C           110.59      55.35       11.29       
C           114.51      56.72       8.13        
C           114.35      56.4        6.63        
C           113.48      55.3        6.54        
C           108.53      54.22       11.82       
C           108.42      54.98       12.96       
C           109.33      56.01       13.23       
C           110.45      56.23       12.4        
C           115.06      56.81       5.54        
C           114.85      56.15       4.31        
C           113.96      55.07       4.2         
C           113.24      54.69       5.29        
C           108.57      54.27       8.65        
C           109.78      52.29       9.83        
C           114.39      58.24       8.4         
C           115.8       56.03       8.56        
H           113.09      56.77       10.74       
H           111.33      53.67       7.16        
H           115.59      57.76       5.59        
H           112.53      53.86       5.28        
H           107.85      53.48       11.54       
H           111.07      57.14       12.55       
H           108.88      53.88       7.66        
H           107.63      53.7        8.88        
H           108.42882   55.34999    8.60765     
H           110.49      52.14       10.68       
H           108.83      51.87       10.06       
H           110.0642    51.75074    8.92638     
H           116.52      56.7        8.08        
H           115.91      55.1        8.01        
H           115.98419   55.93082    9.62974     
H           114.33      58.52       9.43        
H           115.14      58.78       7.96        
H           113.55256   58.72259    7.89612     
H           106.5       54.22       13.88       
H           116.1       57.15       2.73        
S           108.85      56.9        14.63       
C           107.32      54.95       13.91       
C           107.35      55.96       14.81       
C           115.05      56.76       -2.26       
C           114.84      55.38       -1.88       
C           115.01      57.66       -1.22       
N           114.75      54.26       -2.67       
N           114.88      53.62       -0.28       
S           114.57      52.92       -1.73       
H           115.09      58.03       0.77        
H           115.23      58.73       -1.37       
C           114.97      57.25       0.09        
C           114.85      54.96       -0.46       
C           114.92      55.97       0.54        
C           115.33      59.5        -18.19      
C           116.38      58.77       -17.66      
S           114.82      60.78       -17.04      
C           117.47      58.57       -11.75      
C           116.71      59.71       -12.11      
C           116.03      60.57       -11.21      
C           115.95      60.13       -9.89       
C           116.61      58.91       -9.53       
C           117.45      58.2        -10.39      
C           114.92      60.64       -8.88       
C           115.4       59.76       -7.71       
C           116.12      58.66       -8.18       
C           117.96      57.79       -12.91      
C           117.42      58.66       -14.05      
C           116.66      59.78       -13.56      
C           115.02      59.76       -6.38       
C           115.22      58.66       -5.51       
C           115.87      57.49       -6.06       
C           116.39      57.62       -7.39       
C           117.52      58.39       -15.42      
C           116.64      59.11       -16.3       
C           115.93      60.22       -15.81      
C           115.89      60.58       -14.43      
C           115.25      62.17       -8.87       
C           113.41      60.28       -9.14       
C           119.55      57.8        -12.89      
C           117.42      56.36       -13.08      
H           118.09      57.31       -10.11      
H           115.44      61.41       -11.57      
H           118.13      57.56       -15.85      
H           115.2       61.4        -14.1       
H           114.45      60.61       -6.01       
H           116.99      56.86       -7.85       
H           114.85      62.62       -9.84       
H           116.33      62.39       -8.83       
H           114.7501    62.71215    -8.06734    
H           113.21      59.17       -8.98       
H           112.82      60.79       -8.35       
H           113.00628   60.61289    -10.09618   
H           117.66      56.0        -14.08      
H           116.31      56.32       -12.94      
H           117.87708   55.59352    -12.45416   
H           119.93      57.48       -11.88      
H           119.92      56.96       -13.56      
H           119.92966   58.77421    -13.19802   
H           114.47      59.11       -3.47       
H           116.69      57.86       -18.08      
S           115.98      56.24       -4.83       
C           114.9       58.42       -4.09       
C           115.14      57.18       -3.61       
C           112.7       58.81       -21.6       
C           113.43      57.68       -21.06      
C           112.8       59.94       -20.91      
N           113.3       56.4        -21.48      
N           114.8       56.66       -19.37      
S           114.28      55.56       -20.49      
H           113.67      61.1        -19.38      
H           112.12      60.76       -21.2       
C           113.68      60.13       -19.8       
C           114.3       57.85       -19.86      
C           114.5       59.16       -19.31      
C           105.72      55.29       -35.7       
C           106.63      56.31       -35.65      
S           105.07      54.9        -34.09      
C           108.38      58.65       -30.3       
C           107.31      57.74       -30.27      
C           106.81      57.19       -29.08      
C           107.39      57.56       -27.94      
C           108.49      58.5        -27.94      
C           108.89      59.12       -29.13      
C           107.23      56.89       -26.58      
C           108.34      57.6        -25.79      
C           109.02      58.61       -26.58      
C           108.76      58.96       -31.73      
C           107.87      58.05       -32.55      
C           107.04      57.36       -31.62      
C           108.86      57.34       -24.55      
C           109.98      58.07       -24.07      
C           110.54      59.13       -24.82      
C           110.02      59.43       -26.1       
C           107.89      57.73       -33.89      
C           106.85      56.77       -34.3       
C           106.03      56.15       -33.36      
C           106.18      56.37       -32.04      
C           105.84      57.2        -26.03      
C           107.46      55.35       -26.62      
C           108.39      60.4        -32.12      
C           110.32      58.67       -32.01      
H           109.8       59.79       -29.12      
H           106.1       56.4        -29.22      
H           108.24      58.44       -34.61      
H           105.66      55.68       -31.36      
H           108.56      56.52       -23.94      
H           110.63      60.15       -26.75      
H           105.11      56.85       -26.76      
H           105.73      56.63       -25.11      
H           105.72045   58.26848    -25.85067   
H           108.46      55.23       -27.02      
H           107.42      55.04       -25.54      
H           106.78708   54.74017    -27.22282   
H           110.62      58.58       -33.08      
H           110.62      57.73       -31.62      
H           111.02343   59.40896    -31.62631   
H           109.0       61.07       -31.49      
H           108.68      60.64       -33.18      
H           107.3475    60.66587    -31.94508   
H           110.42      57.17       -22.06      
H           107.23      56.64       -36.52      
S           111.94      59.81       -24.02      
C           110.73      57.83       -22.88      
C           111.72      58.76       -22.66      
C           104.84      52.3        -38.81      
C           106.01      53.06       -38.86      
C           103.99      52.7        -37.76      
N           106.97      52.96       -39.78      
N           107.53      54.64       -37.99      
S           108.17      53.98       -39.32      
H           103.49      54.14       -36.23      
H           103.02      52.23       -37.75      
C           104.27      53.72       -36.84      
C           106.37      54.0        -37.79      
C           105.46      54.38       -36.77      
C           104.14      37.7        -45.85      
C           103.05      37.94       -45.06      
S           104.74      39.09       -46.65      
C           102.32      43.57       -43.06      
C           103.22      43.43       -44.11      
C           104.09      44.42       -44.51      
C           104.22      45.53       -43.78      
C           103.24      45.79       -42.8       
C           102.27      44.85       -42.48      
C           105.21      46.68       -43.96      
C           104.67      47.63       -42.91      
C           103.54      47.11       -42.19      
C           101.42      42.32       -42.99      
C           102.21      41.36       -43.86      
C           103.14      42.04       -44.7       
C           105.18      48.9        -42.61      
C           104.74      49.6        -41.43      
C           103.68      49.01       -40.67      
C           103.08      47.78       -40.99      
C           101.97      40.04       -44.11      
C           102.87      39.36       -44.86      
C           103.71      40.09       -45.69      
C           103.83      41.44       -45.69      
C           106.63      46.19       -43.61      
C           105.12      47.58       -45.22      
C           101.25      41.78       -41.52      
C           100.06      42.45       -43.7       
H           101.61      44.89       -41.6       
H           104.82      44.14       -45.23      
H           101.29      39.48       -43.45      
H           104.41      42.12       -46.39      
H           106.04      49.3        -43.17      
H           102.38      47.2        -40.31      
H           106.87      45.36       -44.32      
H           107.37      46.92       -43.69      
H           106.73244   45.7461     -42.61977   
H           104.11      47.91       -45.32      
H           105.72      48.47       -45.08      
H           105.3702    47.00812    -46.11356   
H           99.6        41.49       -43.79      
H           100.32      42.75       -44.72      
H           99.42623    43.18346    -43.20153   
H           100.89      40.8        -41.63      
H           100.6       42.29       -40.81      
H           102.23819   41.69649    -41.06766   
H           105.96      51.42       -41.33      
H           102.49      37.21       -44.54      
S           103.4       50.01       -39.27      
C           105.12      50.87       -40.86      
C           104.55      51.2        -39.71      
C           106.28      33.86       -46.31      
C           104.92      33.87       -45.85      
C           106.8       35.12       -46.65      
N           104.22      32.84       -45.4       
N           102.9       34.96       -45.33      
S           102.69      33.32       -45.16      
H           106.58      37.27       -46.76      
H           107.84      35.26       -47.03      
C           106.03      36.33       -46.56      
C           104.14      35.12       -45.73      
C           104.75      36.38       -46.12      
C           117.67      22.3        -42.77      
C           118.07      23.54       -43.08      
S           116.05      22.03       -43.34      
C           114.09      27.92       -44.6       
C           113.61      26.58       -44.74      
C           112.33      26.3        -45.17      
C           111.48      27.37       -45.42      
C           111.95      28.73       -45.4       
C           113.25      28.98       -45.01      
C           109.99      27.27       -45.78      
C           109.74      28.78       -46.07      
C           110.82      29.62       -45.75      
C           115.47      27.96       -43.93      
C           115.85      26.44       -44.04      
C           114.71      25.68       -44.34      
C           108.5       29.32       -46.33      
C           108.32      30.6        -46.32      
C           109.35      31.47       -45.97      
C           110.62      30.97       -45.6       
C           117.03      25.88       -43.65      
C           117.06      24.49       -43.45      
C           115.84      23.76       -43.72      
C           114.69      24.32       -44.19      
C           109.98      26.39       -47.07      
C           109.05      26.77       -44.68      
C           116.48      28.85       -44.68      
C           115.41      28.4        -42.5       
H           113.65      29.97       -44.87      
H           112.01      25.24       -45.31      
H           117.85      26.55       -43.38      
H           113.75      23.78       -44.32      
H           107.73      28.58       -46.53      
H           111.35      31.63       -45.09      
H           110.48      25.46       -46.9       
H           110.58      26.88       -47.81      
H           109.01501   26.27391    -47.56338   
H           109.17      25.69       -44.63      
H           107.98      26.97       -44.86      
H           109.40362   27.1024     -43.70401   
H           116.41      28.73       -42.14      
H           115.15      27.62       -41.77      
H           114.6838    29.18372    -42.2843    
H           116.22      29.84       -44.65      
H           117.46      28.7        -44.2       
H           116.62925   28.5515     -45.71765   
H           106.0       30.89       -46.49      
H           119.05      23.96       -42.72      
S           108.87      33.16       -45.93      
C           107.04      31.33       -46.44      
C           107.22      32.7        -46.3       
C           119.22      18.73       -40.63      
C           120.11      19.77       -41.08      
C           117.99      18.98       -40.93      
N           121.43      19.8        -40.81      
N           120.54      21.86       -42.02      
S           121.91      21.25       -41.35      
H           116.4       20.24       -41.76      
H           117.2       18.37       -40.55      
C           117.48      20.13       -41.61      
C           119.65      20.97       -41.76      
C           118.24      21.12       -42.06      
C           121.8       2.88        -36.07      
C           120.54      3.42        -36.09      
S           122.92      4.1         -36.56      
C           119.58      9.45        -37.21      
C           120.9       8.99        -37.2       
C           121.97      9.85        -37.42      
C           121.66      11.15       -37.84      
C           120.36      11.58       -37.93      
C           119.33      10.74       -37.56      
C           122.56      12.32       -38.28      
C           121.67      13.44       -38.44      
C           120.38      12.95       -38.47      
C           118.63      8.28        -36.93      
C           119.6       7.15        -36.74      
C           120.93      7.58        -36.92      
C           121.98      14.74       -38.82      
C           120.94      15.64       -39.18      
C           119.62      15.15       -39.09      
C           119.4       13.84       -38.67      
C           119.35      5.78        -36.4       
C           120.46      4.85        -36.38      
C           121.73      5.4         -36.67      
C           122.04      6.74        -36.89      
C           123.6       12.67       -37.17      
C           123.25      12.13       -39.65      
C           117.82      8.56        -35.63      
C           117.69      8.09        -38.15      
H           118.26      11.06       -37.57      
H           122.97      9.44        -37.35      
H           118.33      5.44        -36.13      
H           123.03      7.03        -37.24      
H           122.96      15.08       -38.61      
H           118.4       13.55       -38.51      
H           124.5       11.96       -37.14      
H           123.97      13.6        -37.57      
H           123.14271   12.85147    -36.19735   
H           122.54      12.31       -40.4       
H           123.89      12.92       -39.91      
H           123.76771   11.17479    -39.7375    
H           116.95      8.9         -38.23      
H           118.17      8.11        -39.11      
H           117.18324   7.12507     -38.13612   
H           116.95      7.83        -35.49      
H           117.24      9.46        -35.72      
H           118.4918    8.66113     -34.77761   
H           121.83      17.65       -39.76      
H           119.61      2.85        -35.89      
S           118.48      16.41       -39.27      
C           120.94      17.1        -39.63      
C           119.66      17.52       -39.9       
C           123.36      -1.17       -34.69      
C           121.98      -0.96       -34.92      
C           124.13      0.01        -34.94      
N           121.04      -1.91       -34.76      
N           120.18      0.37        -35.6       
S           119.65      -1.11       -35.13      
H           124.3       2.04        -35.52      
H           125.18      0.05        -34.57      
C           123.58      1.25        -35.49      
C           121.47      0.36        -35.35      
C           122.28      1.53        -35.65      
H           90.15       27.01       84.01       
H           123.84      -2.12       -34.3       
