612

C           0.32        30.03       74.82       
C           -0.99       29.48       75.04       
S           0.7         29.88       73.08       
C           -4.79       28.03       70.49       
C           -3.56       28.42       70.04       
C           -3.17       28.56       68.77       
C           -4.22       28.43       67.81       
C           -5.52       28.32       68.26       
C           -5.9        28.1        69.57       
C           -4.23       28.86       66.37       
C           -5.73       28.79       65.97       
C           -6.42       28.44       67.09       
C           -4.94       28.05       72.05       
C           -3.53       28.45       72.46       
C           -2.78       28.65       71.31       
C           -6.33       28.95       64.68       
C           -7.72       28.73       64.64       
C           -8.44       28.35       65.81       
C           -7.82       28.19       67.07       
C           -3.0        28.6        73.71       
C           -1.69       29.13       73.88       
C           -0.98       29.4        72.72       
C           -1.49       29.13       71.47       
C           -3.76       30.29       66.25       
C           -3.58       27.82       65.45       
C           -5.95       29.16       72.5        
C           -5.15       26.67       72.8        
H           -6.92       27.7        69.9        
H           -2.11       28.85       68.47       
H           -3.58       28.43       74.58       
H           -0.88       29.35       70.59       
H           -5.71       29.09       63.73       
H           -8.35       27.79       67.89       
H           -2.75       30.44       66.64       
H           -3.79       30.68       65.21       
H           -4.36626    31.01037    66.7992     
H           -4.14       26.9        65.33       
H           -3.47       28.18       64.46       
H           -2.58271    27.53189    65.78243    
H           -5.06       26.83       73.91       
H           -4.47       25.92       72.57       
H           -6.13561    26.25646    72.58634    
H           -6.93       28.86       72.24       
H           -5.88       29.15       73.54       
H           -5.69187    30.12972    72.07444    
H           -8.29       29.08       62.52       
H           -1.5        29.39       76.01       
S           -10.15      28.22       65.44       
C           -8.57       28.77       63.5        
C           -9.86       28.47       63.72       
C           3.53        31.35       77.55       
C           2.3         30.84       78.04       
C           3.61        31.31       76.2        
N           2.0         30.67       79.31       
N           0.13        29.97       77.87       
S           0.59        29.97       79.43       
H           2.66        31.18       74.28       
H           4.51        31.64       75.84       
C           2.54        30.99       75.33       
C           1.2         30.41       77.19       
C           1.35        30.56       75.75       
C           12.2        39.75       88.47       
C           12.39       39.97       87.11       
S           11.35       38.24       88.75       
C           10.15       36.22       82.97       
C           9.97        35.8        84.32       
C           9.39        34.51       84.56       
C           8.8         33.87       83.48       
C           8.78        34.34       82.2        
C           9.59        35.5        81.88       
C           7.76        32.73       83.62       
C           7.3         32.57       82.21       
C           7.93        33.51       81.35       
C           10.83       37.61       82.93       
C           11.26       37.75       84.35       
C           10.64       36.8        85.16       
C           6.36        31.77       81.7        
C           5.96        31.99       80.38       
C           6.59        32.96       79.53       
C           7.63        33.72       80.0        
C           11.84       38.87       84.9        
C           11.84       38.95       86.26       
C           11.33       37.9        87.09       
C           10.64       36.82       86.55       
C           8.36        31.45       84.17       
C           6.54        33.13       84.51       
C           12.08       37.48       82.09       
C           9.89        38.79       82.52       
H           9.57        35.96       80.92       
H           9.37        34.15       85.56       
H           12.32       39.58       84.27       
H           10.21       35.98       87.09       
H           5.88        30.96       82.27       
H           8.14        34.44       79.35       
H           8.79        31.5        85.19       
H           7.58        30.74       84.18       
H           9.05926     31.06469    83.42793    
H           6.22        34.16       84.23       
H           5.81        32.3        84.42       
H           6.76568     33.24626    85.57002    
H           10.29       39.74       82.92       
H           9.01        38.72       83.05       
H           9.63833     38.87629    81.46297    
H           11.93       36.95       81.17       
H           12.53       38.44       81.81       
H           12.86874    36.93729    82.611      
H           4.21        30.74       80.27       
H           12.96       40.8        86.73       
S           5.91        32.85       77.94       
C           4.88        31.37       79.74       
C           4.64        31.71       78.42       
C           12.86       42.23       91.92       
C           13.67       42.37       90.76       
C           11.94       41.29       91.87       
N           14.51       43.36       90.53       
N           14.27       41.89       88.52       
S           15.15       43.21       88.96       
H           10.95       39.67       90.84       
H           11.16       41.15       92.69       
C           11.76       40.42       90.71       
C           13.46       41.54       89.6        
C           12.46       40.55       89.6        
C           15.7        53.4        103.78      
C           14.45       52.86       103.69      
S           16.81       52.55       102.72      
C           13.17       48.29       99.88       
C           14.54       48.68       99.96       
C           15.55       48.03       99.24       
C           15.17       47.09       98.27       
C           13.86       46.75       98.14       
C           12.79       47.38       98.82       
C           16.13       46.5        97.29       
C           15.17       45.58       96.53       
C           13.85       45.73       97.03       
C           12.4        48.91       101.02      
C           13.43       49.9        101.62      
C           14.7        49.68       100.96      
C           15.44       44.72       95.47       
C           14.35       44.2        94.76       
C           13.04       44.3        95.26       
C           12.76       45.07       96.45       
C           13.23       50.9        102.55      
C           14.31       51.66       102.9       
C           15.58       51.36       102.31      
C           15.77       50.39       101.32      
C           16.77       47.52       96.27       
C           17.16       45.49       97.85       
C           11.12       49.63       100.48      
C           12.05       47.85       102.12      
H           11.72       47.22       98.63       
H           16.58       48.29       99.33       
H           12.29       51.07       103.04      
H           16.84       50.23       100.9       
H           16.47       44.55       95.09       
H           11.74       45.23       96.85       
H           17.46       46.97       95.62       
H           17.25       48.16       96.89       
H           16.01067    48.08028    95.72446    
H           18.05       46.09       98.01       
H           17.39       44.72       97.16       
H           16.72917    45.07307    98.7603     
H           11.12       48.04       102.67      
H           12.87       48.1        102.83      
H           12.26153    46.82054    101.83091   
H           10.7        48.97       99.73       
H           10.32       49.75       101.21      
H           11.36849    50.56008    99.96881    
H           15.31       43.19       93.1        
H           13.61       53.21       104.25      
S           11.85       43.62       94.2        
C           14.35       43.44       93.58       
C           13.16       42.99       93.15       
C           17.25       56.91       106.06      
C           15.88       56.82       105.79      
C           17.94       56.05       105.35      
N           14.91       57.7        106.26      
N           13.93       55.69       105.09      
S           13.45       57.04       105.86      
H           18.22       54.26       104.28      
H           18.98       56.07       105.49      
C           17.41       54.88       104.63      
C           15.25       55.66       105.12      
C           16.09       54.64       104.52      
C           23.93       70.14       113.48      
C           23.06       70.2        112.41      
S           24.67       68.55       113.64      
C           20.43       65.32       110.22      
C           21.62       65.09       110.9       
C           21.97       63.75       111.14      
C           21.34       62.73       110.5       
C           20.13       62.98       109.71      
C           19.6        64.27       109.72      
C           21.76       61.27       110.3       
C           20.73       60.8        109.28      
C           19.74       61.75       109.0       
C           20.28       66.84       109.99      
C           21.44       67.4        110.77      
C           22.16       66.33       111.38      
C           20.64       59.49       108.87      
C           19.53       59.17       108.08      
C           18.61       60.23       107.72      
C           18.67       61.56       108.16      
C           21.64       68.69       110.99      
C           22.72       68.92       111.9       
C           23.58       67.92       112.42      
C           23.29       66.6        112.19      
C           23.13       61.13       109.63      
C           21.58       60.48       111.64      
C           20.31       67.29       108.51      
C           18.99       67.3        110.72      
H           18.69       64.45       109.19      
H           22.9        63.46       111.66      
H           21.05       69.52       110.49      
H           23.97       65.82       112.59      
H           21.24       58.7        109.18      
H           17.95       62.32       107.94      
H           23.93       61.56       110.16      
H           23.42       60.05       109.71      
H           23.2371     61.51556    108.61611   
H           20.5        60.38       111.85      
H           21.91       59.51       111.36      
H           22.1329     60.84178    112.5069    
H           18.89       68.42       110.71      
H           19.12       67.04       111.71      
H           18.0265     66.916      110.38487   
H           19.37       67.17       107.93      
H           20.46       68.35       108.34      
H           21.07286    66.81945    107.88973   
H           19.44       56.93       107.94      
H           22.61       71.07       112.07      
S           17.3        59.67       106.62      
C           19.02       57.91       107.62      
C           17.86       57.98       106.88      
C           24.33       73.13       116.61      
C           25.18       71.97       116.68      
C           23.56       73.28       115.47      
N           25.97       71.68       117.68      
N           26.06       69.99       115.88      
S           26.7        70.29       117.37      
H           22.59       72.35       113.81      
H           22.87       74.09       115.37      
C           23.49       72.24       114.46      
C           25.19       71.0        115.67      
C           24.23       71.12       114.54      
C           16.68       84.46       126.02      
C           16.42       84.01       124.74      
S           18.26       83.91       126.48      
C           20.01       80.21       121.69      
C           20.39       80.34       123.04      
C           21.37       79.41       123.59      
C           21.93       78.53       122.66      
C           21.65       78.47       121.31      
C           20.64       79.31       120.86      
C           22.92       77.36       122.97      
C           23.23       76.87       121.55      
C           22.51       77.61       120.61      
C           18.68       80.84       121.34      
C           18.48       81.64       122.67      
C           19.57       81.41       123.57      
C           23.93       75.76       121.07      
C           23.87       75.48       119.63      
C           23.2        76.32       118.71      
C           22.52       77.42       119.2       
C           17.36       82.41       123.01      
C           17.4        83.13       124.19      
C           18.44       82.93       125.09      
C           19.5        82.14       124.81      
C           24.18       77.9        123.77      
C           22.3        76.23       123.71      
C           18.76       81.7        120.06      
C           17.74       79.61       121.12      
H           20.56       79.41       119.79      
H           21.68       79.41       124.6       
H           16.6        82.57       122.29      
H           20.3        82.04       125.55      
H           24.25       74.93       121.73      
H           21.97       78.11       118.58      
H           23.82       78.58       124.51      
H           24.69       77.11       124.36      
H           24.86735    78.44707    123.12474   
H           21.58       75.82       123.0       
H           22.96       75.4        123.81      
H           21.86385    76.56063    124.65264   
H           17.97       79.01       120.32      
H           17.76       78.95       121.96      
H           16.70308    79.87099    120.90838   
H           18.62       81.08       119.17      
H           19.8        82.01       119.99      
H           18.10187    82.56818    120.02499   
H           24.79       73.44       119.56      
H           15.49       84.13       124.15      
S           23.46       75.72       117.1       
C           24.34       74.26       118.98      
C           24.18       74.2        117.62      
C           14.79       87.46       128.56      
C           14.54       87.41       127.12      
C           15.65       86.51       128.96      
N           13.93       88.4        126.34      
N           14.77       86.55       124.92      
S           13.91       87.91       124.73      
H           16.96       84.95       128.63      
H           16.07       86.54       129.95      
C           16.25       85.58       128.12      
C           15.08       86.41       126.2       
C           15.95       85.48       126.76      
C           9.96        97.29       141.19      
C           11.0        96.36       141.2       
S           9.31        97.3        139.57      
C           12.49       92.75       136.45      
C           11.55       93.79       136.15      
C           11.2        94.06       134.76      
C           11.61       93.22       133.78      
C           12.36       92.09       134.14      
C           12.74       91.75       135.47      
C           11.36       93.22       132.28      
C           12.33       92.12       131.77      
C           12.84       91.46       132.88      
C           12.86       92.76       137.93      
C           12.09       93.98       138.41      
C           11.22       94.51       137.43      
C           12.65       91.74       130.48      
C           13.39       90.53       130.31      
C           13.72       89.83       131.47      
C           13.57       90.33       132.78      
C           12.02       94.52       139.68      
C           11.16       95.55       140.02      
C           10.37       96.06       138.97      
C           10.36       95.56       137.65      
C           9.87        92.98       132.22      
C           11.87       94.52       131.64      
C           12.21       91.46       138.51      
C           14.43       92.88       138.14      
H           13.43       90.97       135.58      
H           10.57       94.88       134.45      
H           12.62       94.09       140.48      
H           9.59        95.98       137.0       
H           12.41       92.4        129.63      
H           14.06       89.84       133.7       
H           9.25        93.86       132.43      
H           9.68        92.27       132.96      
H           9.58795     92.54208    131.26252   
H           11.28       95.36       132.09      
H           11.66       94.42       130.6       
H           12.93055    94.66628    131.8448    
H           14.64       93.06       139.18      
H           14.77       93.78       137.69      
H           14.97842    91.99683    137.81237   
H           12.42       90.49       138.0       
H           11.12       91.55       138.49      
H           12.41941    91.28051    139.56453   
H           13.36       90.07       128.2       
H           11.67       96.27       142.0       
S           14.43       88.26       131.14      
C           13.71       89.7        129.2       
C           14.31       88.48       129.43      
C           7.79        99.94       144.1       
C           8.75        98.99       144.54      
C           7.57        99.84       142.77      
N           9.27        99.07       145.8       
N           10.45       97.48       144.24      
S           10.4        97.9        145.83      
H           8.01        99.13       140.83      
H           6.84        100.53      142.31      
C           8.29        99.0        141.89      
C           9.47        98.09       143.57      
C           9.26        98.07       142.19      
C           -0.12       112.22      152.09      
C           -0.27       112.03      150.75      
S           0.88        110.98      152.86      
C           2.42        107.58      147.79      
C           2.65        107.59      149.2       
C           3.32        106.57      149.82      
C           3.82        105.51      149.03      
C           3.71        105.61      147.62      
C           3.01        106.6       146.99      
C           4.75        104.31      149.46      
C           5.11        103.82      148.16      
C           4.53        104.55      147.04      
C           1.75        108.91      147.35      
C           1.42        109.49      148.68      
C           1.93        108.72      149.75      
C           6.02        102.84      147.97      
C           6.23        102.4       146.62      
C           5.59        102.97      145.54      
C           4.76        104.09      145.71      
C           0.6         110.55      148.93      
C           0.36        110.89      150.24      
C           1.05        110.18      151.31      
C           1.84        109.09      151.09      
C           5.92        104.89      150.29      
C           3.97        103.19      150.12      
C           2.72        109.92      146.63      
C           0.48        108.56      146.55      
H           3.03        106.63      145.84      
H           3.39        106.59      150.9       
H           0.31        111.26      148.15      
H           2.29        108.52      151.92      
H           6.48        102.22      148.74      
H           4.39        104.69      144.88      
H           5.52        105.41      151.13      
H           6.61        104.1       150.59      
H           6.47124     105.58259   149.65395   
H           3.37        102.57      149.49      
H           4.66        102.52      150.6       
H           3.27993     103.63411   150.8374    
H           -0.21       109.44      146.56      
H           0.02        107.87      147.23      
H           0.67215     108.05472   145.60349   
H           3.02        109.51      145.72      
H           3.65        109.95      147.31      
H           2.30742     110.92199   146.51212   
H           7.62        100.65      146.84      
H           -0.83       112.7       150.05      
S           5.99        102.03      144.05      
C           7.11        101.3       146.16      
C           7.07        100.96      144.86      
C           -1.83       115.25      154.81      
C           -2.0        115.34      153.35      
C           -0.98       114.25      155.24      
N           -2.71       116.3       152.78      
N           -1.61       114.69      151.19      
S           -2.56       116.01      151.15      
H           0.22        112.62      154.74      
H           -0.72       114.05      156.31      
C           -0.35       113.36      154.27      
C           -1.32       114.39      152.45      
C           -0.59       113.31      152.92      
C           -11.13      119.21      167.71      
C           -9.82       118.85      167.84      
S           -11.32      119.99      166.16      
C           -6.08       118.0       163.13      
C           -7.36       118.56      162.89      
C           -7.82       118.83      161.56      
C           -6.96       118.47      160.53      
C           -5.68       117.9       160.87      
C           -5.24       117.76      162.13      
C           -7.24       118.4       159.02      
C           -5.9        117.89      158.56      
C           -5.07       117.51      159.65      
C           -5.92       117.67      164.61      
C           -7.27       118.13      165.2       
C           -8.03       118.81      164.15      
C           -5.58       117.62      157.31      
C           -4.37       117.0       156.98      
C           -3.57       116.64      158.08      
C           -3.86       116.9       159.4       
C           -7.81       118.24      166.47      
C           -9.08       118.81      166.7       
C           -9.77       119.45      165.62      
C           -9.21       119.46      164.32      
C           -8.52       117.5       158.88      
C           -7.53       119.83      158.44      
C           -5.68       116.15      164.7       
C           -4.7        118.43      165.12      
H           -4.32       117.23      162.36      
H           -8.75       119.37      161.36      
H           -7.25       117.77      167.3       
H           -9.71       119.95      163.46      
H           -6.22       117.92      156.54      
H           -3.21       116.58      160.21      
H           -9.21       118.1       158.29      
H           -8.97       117.47      159.88      
H           -8.32844    116.55637   158.36916   
H           -8.59       119.99      158.65      
H           -7.57       119.77      157.36      
H           -6.86117    120.61852   158.78498   
H           -3.96       118.53      164.38      
H           -4.17       117.78      165.82      
H           -4.89291    119.40941   165.55777   
H           -4.67       115.81      164.28      
H           -6.33       115.69      163.93      
H           -5.91918    115.68571   165.65673   
H           -4.2        116.87      154.8       
H           -9.46       118.35      168.74      
S           -2.26       115.62      157.54      
C           -3.73       116.6       155.76      
C           -2.62       115.88      155.84      
C           -14.36      118.78      170.73      
C           -14.66      119.32      169.47      
C           -12.98      118.57      170.89      
N           -15.93      119.7       169.03      
N           -14.14      119.75      167.25      
S           -15.76      120.01      167.4       
H           -10.93      118.63      170.23      
H           -12.6       118.24      171.87      
C           -11.99      118.72      169.92      
C           -13.61      119.35      168.42      
C           -12.23      119.08      168.68      
C           -20.47      115.74      185.43      
C           -19.62      114.83      184.8       
S           -21.45      116.58      184.26      
C           -18.2       115.29      178.92      
C           -19.43      115.89      179.29      
C           -20.02      116.89      178.46      
C           -19.35      117.31      177.32      
C           -18.18      116.56      176.97      
C           -17.61      115.54      177.71      
C           -19.66      118.36      176.22      
C           -18.61      117.98      175.16      
C           -17.69      117.08      175.71      
C           -17.58      114.52      180.07      
C           -18.7       114.62      181.12      
C           -19.73      115.55      180.69      
C           -18.25      118.68      174.02      
C           -17.02      118.43      173.4       
C           -16.15      117.5       173.93      
C           -16.47      116.77      175.08      
C           -18.67      114.26      182.46      
C           -19.59      114.92      183.37      
C           -20.61      115.75      182.93      
C           -20.59      116.09      181.59      
C           -21.11      118.27      175.63      
C           -19.33      119.79      176.58      
C           -17.39      113.1       179.48      
C           -16.26      115.2       180.57      
H           -16.62      115.16      177.34      
H           -20.9       117.37      178.75      
H           -17.81      113.75      182.84      
H           -21.35      116.84      181.16      
H           -18.91      119.48      173.69      
H           -15.74      116.12      175.51      
H           -21.97      118.6       176.19      
H           -21.18      119.04      174.84      
H           -21.34218   117.26871   175.26721   
H           -18.23      119.69      176.77      
H           -19.35      120.45      175.72      
H           -19.97692   120.17954   177.36604   
H           -15.46      114.71      180.03      
H           -16.02      115.01      181.6       
H           -16.20204   116.26503   180.3454    
H           -16.76      113.16      178.65      
H           -18.26      112.62      179.06      
H           -17.01727   112.30437   180.1251    
H           -16.92      119.73      171.49      
H           -19.02      114.16      185.33      
S           -14.71      117.32      173.05      
C           -16.5       118.98      172.16      
C           -15.24      118.53      171.87      
C           -20.4       117.52      189.43      
C           -19.49      116.54      189.09      
C           -21.31      117.78      188.44      
N           -18.6       116.12      189.99      
N           -18.68      114.84      187.74      
S           -17.88      114.86      189.18      
H           -22.04      117.62      186.41      
H           -21.96      118.62      188.64      
C           -21.3       117.21      187.12      
C           -19.56      115.83      187.79      
C           -20.46      116.2       186.78      
C           -19.0       128.73      201.54      
C           -17.92      128.1       201.14      
S           -20.43      128.17      200.73      
C           -18.39      123.54      197.06      
C           -19.56      124.1       197.5       
C           -20.77      123.8       196.89      
C           -20.79      122.8       195.94      
C           -19.58      122.33      195.48      
C           -18.38      122.65      196.03      
C           -21.94      122.25      195.12      
C           -21.27      121.29      194.17      
C           -19.86      121.45      194.28      
C           -17.16      124.04      197.84      
C           -17.8       125.1       198.76      
C           -19.23      125.15      198.48      
C           -21.82      120.56      193.17      
C           -21.01      119.81      192.25      
C           -19.6       119.97      192.43      
C           -19.02      120.88      193.3       
C           -17.28      125.99      199.71      
C           -18.16      127.01      200.21      
C           -19.54      126.97      199.86      
C           -20.09      126.02      198.99      
C           -22.96      121.53      196.09      
C           -22.69      123.35      194.33      
C           -16.62      122.92      198.72      
C           -16.01      124.7       197.04      
H           -17.4       122.25      195.68      
H           -21.65      124.32      197.21      
H           -16.27      125.9       200.07      
H           -21.09      126.04      198.65      
H           -22.9       120.54      193.04      
H           -17.96      121.11      193.34      
H           -23.71      121.14      195.44      
H           -23.34      122.29      196.72      
H           -22.51728   120.69375   196.6311    
H           -23.23      123.91      195.01      
H           -23.45      122.93      193.62      
H           -22.0635    124.07232   193.80669   
H           -15.37      123.93      196.7       
H           -15.48      125.41      197.62      
H           -16.43484   125.14608   196.14076   
H           -16.06      122.15      198.05      
H           -15.9       123.35      199.46      
H           -17.34729   122.35671   199.30468   
H           -22.37      118.74      190.9       
H           -16.92      128.17      201.6       
S           -18.81      119.05      191.18      
C           -21.41      119.01      191.18      
C           -20.36      118.34      190.65      
C           -19.46      131.75      204.77      
C           -18.5       130.72      204.93      
C           -20.27      131.65      203.65      
N           -17.53      130.75      205.86      
N           -17.25      128.88      204.2       
S           -16.65      129.39      205.57      
H           -20.79      130.61      201.83      
H           -21.0       132.4       203.49      
C           -20.04      130.68      202.57      
C           -18.28      129.74      203.85      
C           -19.14      129.64      202.67      
H           -10.68      28.58       63.03       
H           -19.46      132.6       205.42      
