612

C           2.69        96.43       80.54       
C           2.48        97.0        81.75       
S           3.21        97.64       79.3        
C           3.7         102.72      83.03       
C           3.87        102.41      81.65       
C           4.32        103.38      80.74       
C           4.71        104.59      81.24       
C           4.72        104.86      82.66       
C           4.15        103.94      83.53       
C           5.35        105.78      80.48       
C           5.98        106.6       81.65       
C           5.41        106.17      82.85       
C           2.96        101.62      83.71       
C           3.0         100.56      82.68       
C           3.49        101.05      81.44       
C           6.85        107.71      81.6        
C           7.2         108.44      82.79       
C           6.58        107.99      83.97       
C           5.68        106.9       84.0        
C           2.68        99.25       82.9        
C           2.71        98.39       81.81       
C           3.14        98.89       80.56       
C           3.49        100.21      80.34       
C           6.44        105.36      79.55       
C           4.29        106.71      79.87       
C           3.6         101.05      84.99       
C           1.4         101.85      83.79       
H           4.23        104.07      84.57       
H           4.44        103.18      79.65       
H           2.37        98.87       83.85       
H           3.87        100.52      79.36       
H           7.21        108.12      80.66       
H           5.17        106.62      84.89       
H           6.16        105.0       78.54       
H           7.13        106.2       79.41       
H           7.13056     104.61909   79.95283    
H           3.73        107.11      80.66       
H           4.77        107.66      79.49       
H           3.60457     106.28875   79.13459    
H           0.95        100.87      84.01       
H           1.04        102.16      82.78       
H           1.10937     102.64196   84.48024    
H           3.6         101.74      85.82       
H           3.09        100.16      85.3        
H           4.65336     100.80215   84.85919    
H           8.6         110.03      82.1        
H           2.16        96.44       82.6        
S           7.12        109.04      85.28       
C           7.96        109.66      82.93       
C           8.07        110.16      84.22       
C           1.75        92.13       79.75       
C           2.64        92.9        78.93       
C           1.34        92.83       80.82       
N           3.29        92.29       77.88       
N           3.89        94.63       78.14       
S           4.17        93.34       77.05       
H           1.29        94.74       81.98       
H           0.62        92.37       81.52       
C           1.67        94.23       81.03       
C           3.01        94.27       79.1        
C           2.45        95.03       80.25       
C           -2.76       76.28       80.76       
C           -2.89       77.17       81.76       
S           -1.5        76.79       79.64       
C           -0.25       82.64       81.74       
C           -0.01       81.84       80.63       
C           0.73        82.34       79.55       
C           1.02        83.69       79.53       
C           0.69        84.55       80.68       
C           0.09        83.96       81.81       
C           1.48        84.5        78.35       
C           1.49        85.97       78.92       
C           1.0         85.95       80.3        
C           -0.99       81.86       82.74       
C           -1.35       80.55       82.04       
C           -0.56       80.55       80.83       
C           1.71        87.21       78.33       
C           1.62        88.37       79.1        
C           1.23        88.21       80.41       
C           0.91        87.11       81.1        
C           -1.94       79.43       82.53       
C           -2.06       78.33       81.63       
C           -1.29       78.33       80.41       
C           -0.57       79.48       79.97       
C           2.87        84.11       77.95       
C           0.6         84.32       77.1        
C           -0.2        81.47       84.04       
C           -2.29       82.61       83.12       
H           -0.21       84.49       82.72       
H           1.01        81.6        78.8        
H           -2.52       79.55       83.44       
H           0.02        79.53       79.04       
H           1.95        87.38       77.24       
H           0.47        87.12       82.08       
H           3.04        84.14       76.9        
H           3.01        83.05       78.22       
H           3.64692     84.68066    78.45878    
H           0.56        83.36       76.77       
H           1.06        84.88       76.25       
H           -0.40559    84.70734    77.26387    
H           -2.07       83.65       83.38       
H           -2.86       82.17       83.95       
H           -2.9577     82.61       82.25845    
H           0.25        82.41       84.39       
H           -0.92       81.23       84.81       
H           0.61748     80.77142    83.86164    
H           2.1         90.1        77.71       
H           -3.63       77.1        82.59       
S           1.19        89.77       81.15       
C           1.85        89.75       78.72       
C           1.61        90.64       79.72       
C           -5.03       72.76       79.57       
C           -5.45       73.43       80.76       
C           -3.93       73.21       78.97       
N           -6.5        73.07       81.55       
N           -5.2        75.07       82.4        
S           -6.57       74.19       82.8        
H           -2.51       74.76       78.67       
H           -3.55       72.69       78.11       
C           -3.32       74.42       79.33       
C           -4.71       74.55       81.2        
C           -3.57       75.07       80.52       
C           -13.09      59.61       74.16       
C           -13.82      60.65       74.76       
S           -11.66      60.26       73.39       
C           -11.64      66.32       75.46       
C           -10.83      65.45       74.62       
C           -9.51       65.82       74.31       
C           -8.98       67.03       74.83       
C           -9.68       67.82       75.8        
C           -11.05      67.5        76.04       
C           -7.55       67.41       74.71       
C           -7.48       68.54       75.74       
C           -8.75       68.78       76.34       
C           -12.81      65.53       75.96       
C           -12.65      64.21       75.21       
C           -11.52      64.17       74.44       
C           -6.33       69.22       76.16       
C           -6.44       70.13       77.24       
C           -7.7        70.25       77.91       
C           -8.87       69.68       77.42       
C           -13.52      63.19       75.26       
C           -13.1       61.9        74.7        
C           -11.85      61.85       74.07       
C           -11.01      63.01       73.84       
C           -6.59       66.27       75.15       
C           -7.12       68.05       73.37       
C           -12.71      65.42       77.52       
C           -14.22      66.06       75.48       
H           -11.56      67.99       76.9        
H           -8.96       65.33       73.55       
H           -14.45      63.23       75.87       
H           -10.07      63.02       73.29       
H           -5.39       69.15       75.55       
H           -9.74       69.74       78.01       
H           -6.5        65.46       74.47       
H           -5.51       66.62       75.07       
H           -6.84002    65.91581    76.15007    
H           -7.67       69.03       73.36       
H           -6.07       68.33       73.37       
H           -7.32934    67.48695    72.46046    
H           -14.95      65.54       76.05       
H           -14.16      65.87       74.35       
H           -14.343     67.11639    75.71877    
H           -12.97      66.33       78.08       
H           -13.43      64.76       77.96       
H           -11.72984   65.04627    77.81616    
H           -4.37       71.08       77.53       
H           -14.71      60.55       75.26       
S           -7.54       71.46       79.21       
C           -5.42       70.98       77.87       
C           -5.83       71.77       78.88       
C           -13.22      55.17       74.78       
C           -14.27      55.99       75.21       
C           -12.28      55.84       73.99       
N           -15.34      55.53       75.9        
N           -15.38      57.96       75.34       
S           -16.29      56.86       76.1        
H           -11.44      57.69       73.16       
H           -11.41      55.37       73.61       
C           -12.28      57.27       73.75       
C           -14.24      57.41       74.89       
C           -13.23      58.16       74.23       
C           -6.41       43.04       83.85       
C           -7.56       43.58       84.19       
S           -5.83       43.93       82.41       
C           -10.59      47.69       80.93       
C           -9.4        47.27       80.38       
C           -8.95       47.59       79.11       
C           -9.67       48.52       78.36       
C           -10.85      49.06       78.93       
C           -11.36      48.64       80.21       
C           -9.3        49.2        77.06       
C           -10.49      50.1        76.81       
C           -11.32      50.12       77.93       
C           -10.97      46.88       82.17       
C           -9.65       46.15       82.44       
C           -8.77       46.38       81.35       
C           -10.66      51.01       75.77       
C           -11.66      51.99       75.88       
C           -12.63      51.94       76.9        
C           -12.44      51.04       77.95       
C           -9.33       45.27       83.38       
C           -8.07       44.64       83.34       
C           -7.21       44.97       82.31       
C           -7.52       45.85       81.28       
C           -7.95       50.0        77.12       
C           -9.36       48.27       75.86       
C           -11.15      47.82       83.37       
C           -12.21      45.9        82.08       
H           -12.31      48.99       80.6        
H           -8.0        47.21       78.74       
H           -10.09      45.05       84.13       
H           -6.91       46.01       80.36       
H           -10.01      51.1        74.95       
H           -13.15      51.01       78.85       
H           -7.4        50.1        76.14       
H           -7.25       49.25       77.63       
H           -7.9865     50.9053     77.72597    
H           -10.29      47.71       76.01       
H           -9.39       48.71       74.87       
H           -8.58573    47.50283    75.8671     
H           -13.14      46.45       82.36       
H           -12.09      44.91       82.57       
H           -12.42675   45.58536    81.05916    
H           -12.01      48.5        83.33       
H           -11.31      47.17       84.21       
H           -10.2738    48.42827    83.59448    
H           -11.29      53.19       74.07       
H           -8.1        43.22       85.04       
S           -13.74      53.29       76.77       
C           -11.9       53.04       74.98       
C           -13.01      53.81       75.29       
C           -3.93       39.68       85.3        
C           -5.0        40.14       86.07       
C           -3.81       40.29       84.13       
N           -5.36       39.62       87.21       
N           -6.84       41.43       86.54       
S           -6.58       40.47       87.85       
H           -4.36       41.85       82.74       
H           -3.02       39.88       83.46       
C           -4.55       41.47       83.75       
C           -5.91       41.18       85.61       
C           -5.67       41.95       84.39       
C           5.7         27.54       91.19       
C           5.12        28.4        92.06       
S           5.89        28.26       89.62       
C           2.33        33.48       90.04       
C           3.22        32.91       89.14       
C           3.24        33.37       87.79       
C           2.28        34.21       87.3        
C           1.36        34.81       88.24       
C           1.43        34.53       89.61       
C           2.01        34.8        85.85       
C           0.77        35.63       86.12       
C           0.4         35.72       87.49       
C           2.4         32.67       91.38       
C           3.6         31.75       91.16       
C           3.95        31.77       89.76       
C           0.01        36.35       85.23       
C           -1.12       37.05       85.68       
C           -1.37       37.1        87.05       
C           -0.59       36.49       87.98       
C           3.96        30.71       91.97       
C           4.7         29.62       91.47       
C           5.18        29.8        90.14       
C           4.83        30.85       89.29       
C           3.23        35.67       85.25       
C           1.48        33.75       84.84       
C           2.72        33.62       92.53       
C           1.12        31.8        91.57       
H           0.67        35.05       90.25       
H           3.76        32.71       87.11       
H           3.55        30.65       92.98       
H           5.16        30.9        88.23       
H           0.24        36.27       84.22       
H           -0.86       36.56       89.07       
H           4.16        35.12       85.41       
H           3.05        35.96       84.2        
H           3.33991     36.60055    85.80686    
H           0.52        33.29       85.1        
H           1.11        34.24       83.91       
H           2.18435     32.9594     84.58126    
H           0.73        31.76       92.61       
H           1.48        30.77       91.46       
H           0.36666     31.97553    90.80203    
H           1.9         34.29       92.65       
H           2.82        33.01       93.45       
H           3.59883     34.24076    92.35563    
H           -2.06       37.99       83.87       
H           4.98        28.22       93.09       
S           -2.77       38.18       87.4        
C           -2.11       37.85       84.95       
C           -3.01       38.59       85.69       
C           6.55        23.06       91.43       
C           6.34        23.87       92.55       
C           6.56        23.84       90.29       
N           6.32        23.43       93.79       
N           5.81        25.87       93.75       
S           5.87        24.63       94.86       
H           6.56        25.62       89.19       
H           6.75        23.31       89.36       
C           6.39        25.23       90.22       
C           6.07        25.33       92.53       
C           6.05        26.1        91.31       
C           13.05       8.42        88.3        
C           13.65       9.31        89.14       
S           11.26       8.59        88.34       
C           10.97       14.3        91.36       
C           10.11       13.39       90.62       
C           8.86        13.83       90.18       
C           8.45        15.1        90.33       
C           9.33        15.94       91.06       
C           10.52       15.58       91.62       
C           7.04        15.77       90.04       
C           7.3         17.17       90.55       
C           8.58        17.25       91.22       
C           12.3        13.62       91.64       
C           12.17       12.29       90.91       
C           10.8        12.11       90.45       
C           6.4         18.23       90.6        
C           6.8         19.42       91.14       
C           7.99        19.47       91.8        
C           8.89        18.46       91.93       
C           13.11       11.36       90.55       
C           12.79       10.32       89.64       
C           11.43       10.04       89.34       
C           10.38       10.97       89.79       
C           6.7         15.71       88.49       
C           5.95        15.2        90.96       
C           13.53       14.39       91.12       
C           12.58       13.21       93.11       
H           11.15       16.28       92.15       
H           8.24        13.06       89.7        
H           14.15       11.51       90.75       
H           9.37        10.87       89.39       
H           5.37        18.11       90.09       
H           9.81        18.62       92.55       
H           6.7         14.65       88.24       
H           5.7         16.13       88.26       
H           7.51113     16.16141    87.91868    
H           6.24        15.5        91.93       
H           4.99        15.72       90.65       
H           5.71509     14.1429     90.83564    
H           13.54       12.76       93.28       
H           11.9        12.38       93.38       
H           12.36806    13.98003    93.85178    
H           13.45       15.3        91.68       
H           14.42       13.88       91.49       
H           13.55064    14.46569    90.03283    
H           5.23        20.8        90.37       
H           14.76       9.28        89.25       
S           8.3         21.07       92.25       
C           6.14        20.69       90.93       
C           6.87        21.68       91.56       
C           14.66       4.85        86.2        
C           15.4        5.49        87.21       
C           13.6        5.57        85.75       
N           16.63       5.05        87.68       
N           15.69       7.05        88.93       
S           17.06       6.1         88.88       
H           12.07       7.02        86.18       
H           13.11       5.21        84.92       
C           13.06       6.72        86.44       
C           14.9        6.63        87.93       
C           13.61       7.24        87.59       
C           16.94       -9.85       78.73       
C           15.71       -9.27       78.94       
S           18.19       -8.94       79.58       
C           14.82       -4.07       81.88       
C           16.12       -4.61       81.99       
C           17.2        -3.91       82.55       
C           16.98       -2.61       83.05       
C           15.71       -2.07       82.96       
C           14.66       -2.78       82.31       
C           17.9        -1.47       83.59       
C           16.88       -0.61       84.26       
C           15.65       -0.72       83.55       
C           13.84       -5.06       81.32       
C           14.85       -6.06       80.8        
C           16.2        -5.81       81.14       
C           17.14       0.54        84.97       
C           16.15       1.55        85.03       
C           14.95       1.37        84.36       
C           14.71       0.25        83.59       
C           14.62       -7.14       79.97       
C           15.7        -8.04       79.66       
C           17.04       -7.76       80.11       
C           17.29       -6.67       80.94       
C           18.98       -2.03       84.5        
C           18.52       -0.67       82.42       
C           12.89       -5.58       82.42       
C           13.03       -4.4        80.18       
H           13.74       -2.27       82.13       
H           18.21       -4.31       82.58       
H           13.61       -7.26       79.54       
H           18.29       -6.34       81.17       
H           18.12       0.83        85.3        
H           13.75       0.02        83.08       
H           19.82       -2.69       84.1        
H           19.43       -1.07       84.91       
H           18.61214    -2.59915    85.35372    
H           17.7        -0.36       81.75       
H           18.99       0.26        82.63       
H           19.07713    -1.23446    81.67227    
H           12.39       -3.63       80.52       
H           12.42       -5.23       79.82       
H           13.64343    -4.04336    79.35259    
H           12.23       -4.79       82.69       
H           13.44       -5.85       83.29       
H           12.36565    -6.49587    82.14734    
H           17.14       3.13        86.16       
H           14.8        -9.65       78.48       
S           13.83       2.73        84.65       
C           16.22       2.85        85.65       
C           15.04       3.58        85.58       
C           18.32       -13.64      76.75       
C           16.9        -13.4       77.02       
C           19.1        -12.58      77.07       
N           15.92       -14.25      76.79       
N           15.12       -12.05      77.7        
S           14.5        -13.54      77.15       
H           19.36       -10.62      77.95       
H           20.17       -12.68      76.93       
C           18.64       -11.35      77.72       
C           16.45       -12.1       77.51       
C           17.3        -11.1       77.99       
C           21.76       -23.39      64.01       
C           22.47       -22.24      64.23       
S           20.43       -23.47      65.13       
C           21.84       -19.2       69.46       
C           20.92       -20.3       69.28       
C           19.95       -20.65      70.17       
C           19.93       -19.86      71.31       
C           20.7        -18.71      71.45       
C           21.72       -18.41      70.59       
C           18.83       -19.92      72.45       
C           19.17       -18.63      73.24       
C           20.33       -18.0       72.7        
C           22.78       -19.13      68.32       
C           22.26       -20.19      67.37       
C           21.21       -20.84      68.03       
C           18.49       -18.06      74.27       
C           18.89       -16.81      74.78       
C           19.95       -16.17      74.15       
C           20.76       -16.81      73.19       
C           22.75       -20.58      66.14       
C           22.11       -21.64      65.53       
C           21.05       -22.27      66.23       
C           20.51       -21.84      67.42       
C           17.42       -19.82      71.78       
C           18.98       -21.15      73.42       
C           22.5        -17.68      67.85       
C           24.24       -19.39      68.76       
H           22.29       -17.53      70.84       
H           19.36       -21.55      70.03       
H           23.64       -20.17      65.64       
H           19.63       -22.37      67.82       
H           17.62       -18.59      74.59       
H           21.52       -16.27      72.67       
H           17.24       -20.73      71.21       
H           16.57       -19.69      72.55       
H           17.30457    -18.96873   71.10909    
H           19.86       -20.98      74.14       
H           18.09       -21.19      74.07       
H           18.916      -22.13838   72.96492    
H           24.75       -18.49      69.17       
H           24.74       -19.85      67.92       
H           24.2256     -20.18198   69.50878    
H           22.8        -16.96      68.65       
H           23.16       -17.41      67.06       
H           21.48847    -17.57315   67.45821    
H           17.3        -16.33      76.16       
H           23.25       -21.96      63.56       
S           20.1        -14.56      74.77       
C           18.25       -15.99      75.74       
C           18.75       -14.75      75.92       
C           21.58       -26.46      60.88       
C           22.49       -25.35      60.75       
C           21.0        -26.47      62.08       
N           23.25       -25.12      59.66       
N           23.41       -23.29      61.43       
S           24.03       -23.72      59.98       
H           20.61       -25.68      63.95       
H           20.38       -27.33      62.34       
C           21.14       -25.5       63.08       
C           22.54       -24.28      61.77       
C           21.81       -24.34      62.95       
C           14.74       -37.39      50.26       
C           14.75       -37.59      51.61       
S           15.47       -35.89      49.86       
C           17.39       -33.73      55.58       
C           17.3        -33.31      54.23       
C           17.77       -32.1       53.85       
C           18.53       -31.39      54.79       
C           18.63       -31.8       56.17       
C           18.09       -33.02      56.58       
C           19.14       -30.0       54.6        
C           19.51       -29.64      56.07       
C           19.22       -30.7       56.95       
C           16.61       -35.05      55.8        
C           16.22       -35.41      54.33       
C           16.56       -34.32      53.5        
C           20.04       -28.51      56.43       
C           20.37       -28.3       57.8        
C           19.97       -29.35      58.73       
C           19.38       -30.5       58.33       
C           15.44       -36.46      53.81       
C           15.31       -36.52      52.41       
C           15.7        -35.46      51.59       
C           16.32       -34.36      52.12       
C           20.4        -30.04      53.73       
C           18.13       -28.98      54.04       
C           17.41       -36.25      56.4        
C           15.33       -34.67      56.62       
H           18.31       -33.4       57.53       
H           17.55       -31.72      52.84       
H           15.04       -37.25      54.45       
H           16.71       -33.62      51.43       
H           20.26       -27.71      55.74       
H           19.22       -31.32      59.0        
H           20.93       -29.08      53.77       
H           20.11       -30.14      52.7        
H           21.14407    -30.76321   54.06379    
H           17.77       -29.61      53.22       
H           18.75       -28.15      53.62       
H           17.35508    -28.61742   54.71539    
H           14.72       -33.94      56.1        
H           15.58       -34.07      57.5        
H           14.72686    -35.49311   57.00317    
H           17.33       -36.25      57.51       
H           16.89       -37.08      55.99       
H           18.41253    -36.34513   55.98289    
H           21.61       -26.5       57.96       
H           14.26       -38.49      52.1        
S           20.35       -28.91      60.33       
C           21.05       -27.25      58.48       
C           21.13       -27.39      59.86       
C           14.0        -40.01      46.91       
C           13.95       -40.55      48.24       
C           14.12       -38.67      46.79       
N           13.82       -41.85      48.51       
N           14.24       -40.42      50.52       
S           13.95       -41.96      50.11       
H           14.28       -36.73      47.73       
H           14.12       -38.21      45.81       
C           14.18       -37.81      47.88       
C           14.14       -39.75      49.39       
C           14.34       -38.32      49.19       
C           15.03       -48.56      32.68       
C           14.08       -48.97      33.62       
S           15.87       -47.16      33.3        
C           13.67       -46.36      39.18       
C           14.71       -45.96      38.3        
C           15.52       -44.92      38.55       
C           15.36       -44.21      39.72       
C           14.37       -44.54      40.65       
C           13.5        -45.68      40.37       
C           16.16       -42.97      40.29       
C           15.44       -42.69      41.62       
C           14.4        -43.63      41.82       
C           12.87       -47.47      38.53       
C           13.6        -47.58      37.16       
C           14.58       -46.64      37.03       
C           15.78       -41.72      42.55       
C           14.98       -41.63      43.7        
C           13.91       -42.57      43.9        
C           13.68       -43.63      42.99       
C           13.42       -48.47      36.11       
C           14.1        -48.26      34.84       
C           14.95       -47.2       34.77       
C           15.28       -46.41      35.84       
C           17.68       -43.27      40.46       
C           15.97       -41.83      39.28       
C           13.05       -48.83      39.32       
C           11.32       -47.08      38.48       
H           12.63       -45.83      40.93       
H           16.21       -44.64      37.78       
H           12.64       -49.22      36.16       
H           15.97       -45.6       35.66       
H           16.62       -41.0       42.36       
H           12.85       -44.36      43.17       
H           18.07       -43.79      39.62       
H           18.27       -42.35      40.46       
H           17.9363     -43.89651   41.31434    
H           14.89       -41.74      39.09       
H           16.57       -40.97      39.62       
H           16.464      -42.0233    38.32779    
H           10.85       -47.38      39.42       
H           11.32       -46.01      38.39       
H           10.77568    -47.58298   37.68074    
H           12.32       -49.52      38.87       
H           12.61       -48.77      40.31       
H           14.0712     -49.20135   39.2343     
H           15.88       -39.9       44.79       
H           13.41       -49.88      33.42       
S           13.14       -42.32      45.46       
C           15.09       -40.67      44.75       
C           14.1        -40.83      45.69       
C           16.01       -49.96      28.58       
C           15.07       -50.62      29.43       
C           16.62       -48.95      29.23       
N           14.16       -51.52      29.0        
N           13.68       -50.83      31.3        
S           13.17       -51.98      30.24       
H           16.96       -47.76      31.0        
H           17.53       -48.5       28.83       
C           16.4        -48.61      30.58       
C           14.68       -50.11      30.69       
C           15.41       -49.16      31.42       
H           8.8         110.87      84.56       
H           16.09       -50.0       27.51       
