612

C           81.67       8.77        101.1       
C           81.33       7.97        100.06      
S           80.23       9.49        101.8       
C           75.65       7.51        98.09       
C           75.91       8.29        99.19       
C           74.94       9.08        99.79       
C           73.61       9.02        99.14       
C           73.4        8.3         97.99       
C           74.37       7.45        97.51       
C           72.33       9.82        99.41       
C           71.35       9.27        98.39       
C           72.01       8.33        97.53       
C           76.93       6.92        97.55       
C           77.97       7.49        98.52       
C           77.29       8.27        99.5        
C           70.06       9.67        98.18       
C           69.4        9.09        97.07       
C           70.05       8.16        96.19       
C           71.33       7.71        96.52       
C           79.34       7.35        98.57       
C           79.93       7.95        99.68       
C           79.19       8.7         100.64      
C           77.84       8.94        100.59      
C           71.97       9.5         100.84      
C           72.41       11.37       99.2        
C           76.89       5.33        97.57       
C           77.45       7.52        96.2        
H           74.16       6.81        96.69       
H           75.11       9.69        100.64      
H           79.91       6.89        97.84       
H           77.34       9.58        101.36      
H           69.48       10.23       98.93       
H           71.86       6.92        95.96       
H           71.57       10.37       101.32      
H           72.87       9.2         101.39      
H           71.23913    8.70335     100.97887   
H           72.55       11.92       100.17      
H           71.41       11.71       98.93       
H           73.20876    11.7798     98.58183    
H           78.54       7.41        96.09       
H           77.21       8.59        96.36       
H           76.94972    7.0479      95.35446    
H           77.86       5.22        97.11       
H           76.13       4.76        96.99       
H           76.82392    4.93354     98.58319    
H           67.33       10.0        97.24       
H           82.06       7.42        99.42       
S           69.0        7.74        94.85       
C           68.05       9.34        96.7        
C           67.69       8.71        95.59       
C           85.51       9.39        103.28      
C           85.37       8.28        102.39      
C           84.45       10.21       103.26      
N           86.2        7.34        102.18      
N           84.14       6.93        100.9       
S           85.62       6.25        101.11      
H           82.47       10.79       102.73      
H           84.4        11.04       103.88      
C           83.22       10.0        102.54      
C           84.11       8.09        101.63      
C           82.94       8.93        101.75      
C           96.85       13.9        114.57      
C           95.56       14.03       114.74      
S           97.23       13.4        112.92      
C           91.38       12.43       110.57      
C           92.72       12.09       110.28      
C           93.07       11.34       109.16      
C           92.08       10.83       108.39      
C           90.73       11.16       108.7       
C           90.36       12.0        109.74      
C           92.12       10.22       106.99      
C           90.69       9.96        106.66      
C           89.88       10.58       107.65      
C           91.33       13.1        111.94      
C           92.81       13.17       112.35      
C           93.62       12.63       111.27      
C           90.09       9.47        105.53      
C           88.73       9.65        105.22      
C           87.91       10.2        106.24      
C           88.46       10.6        107.46      
C           93.37       13.63       113.5       
C           94.74       13.57       113.65      
C           95.55       13.19       112.55      
C           95.02       12.72       111.32      
C           92.77       11.27       106.01      
C           92.86       8.88        107.1       
C           90.83       14.55       111.96      
C           90.62       12.17       112.95      
H           89.33       12.25       109.98      
H           94.14       11.15       108.99      
H           92.69       14.05       114.34      
H           95.74       12.52       110.5       
H           90.77       8.96        104.74      
H           87.85       11.01       108.25      
H           92.98       10.71       105.04      
H           93.75       11.47       106.35      
H           92.2222     12.20909    105.93174   
H           93.9        9.04        107.41      
H           92.87       8.38        106.18      
H           92.52486    8.20971     107.89151   
H           90.95       12.27       113.95      
H           91.0        11.21       112.63      
H           89.53357    12.19786    112.86643   
H           89.76       14.78       111.85      
H           91.09       14.88       113.03      
H           91.2815     15.19084    111.20265   
H           88.39       8.65        103.3       
H           95.13       14.36       115.69      
S           86.24       10.22       105.76      
C           87.97       9.19        104.08      
C           86.67       9.53        104.21      
C           100.45      15.04       116.83      
C           99.27       15.74       117.0       
C           100.33      13.92       115.99      
N           99.1        16.82       117.75      
N           97.01       16.26       116.46      
S           97.62       17.43       117.4       
H           99.07       12.6        114.79      
H           101.09      13.19       115.97      
C           99.11       13.5        115.43      
C           98.03       15.43       116.29      
C           98.0        14.23       115.44      
C           116.44      17.96       119.39      
C           115.86      16.73       119.32      
S           115.18      19.09       119.61      
C           109.96      15.56       119.12      
C           110.23      16.9        119.54      
C           109.17      17.77       119.82      
C           107.91      17.39       119.63      
C           107.67      16.06       119.19      
C           108.67      15.15       118.88      
C           106.63      18.02       120.16      
C           105.59      17.18       119.46      
C           106.23      16.06       118.86      
C           111.17      14.68       119.04      
C           112.26      15.73       119.33      
C           111.69      17.06       119.54      
C           104.18      17.36       119.4       
C           103.49      16.43       118.69      
C           104.18      15.32       118.18      
C           105.5       15.07       118.19      
C           113.57      15.54       119.34      
C           114.43      16.65       119.43      
C           113.85      17.94       119.6       
C           112.47      18.16       119.62      
C           106.69      18.04       121.68      
C           106.55      19.49       119.6       
C           111.22      13.59       120.13      
C           111.46      14.24       117.6       
H           108.39      14.16       118.53      
H           109.33      18.78       120.28      
H           113.96      14.58       119.07      
H           111.98      19.16       119.66      
H           103.62      18.21       119.86      
H           105.92      14.15       117.82      
H           107.24      18.97       121.95      
H           107.17      17.14       122.02      
H           105.70041   18.11276    122.13114   
H           107.19      20.1        120.26      
H           105.61      19.92       119.81      
H           106.71215   19.63004    118.53126   
H           112.49      13.81       117.72      
H           111.46      15.11       116.84      
H           110.92718   13.35428    117.25402   
H           110.61      12.8        119.66      
H           112.21      13.16       120.31      
H           110.85871   13.93004    121.10054   
H           101.42      17.17       118.7       
H           116.41      15.84       119.28      
S           102.99      14.28       117.35      
C           102.12      16.45       118.36      
C           101.72      15.39       117.56      
C           120.01      19.8        117.83      
C           119.85      18.38       117.74      
C           119.18      20.4        118.74      
N           120.64      17.49       117.11      
N           118.66      16.48       118.11      
S           119.96      16.04       117.21      
H           117.48      20.33       120.07      
H           119.29      21.41       119.03      
C           118.08      19.74       119.33      
C           118.69      17.76       118.36      
C           117.69      18.49       119.04      
C           125.58      27.68       104.87      
C           124.54      28.14       105.58      
S           126.43      26.34       105.64      
C           123.62      26.06       111.25      
C           124.65      25.39       110.57      
C           125.43      24.36       111.13      
C           124.87      23.75       112.31      
C           123.75      24.34       112.9       
C           123.14      25.57       112.48      
C           125.13      22.38       112.91      
C           124.0       22.32       113.93      
C           123.25      23.47       113.91      
C           122.92      27.09       110.37      
C           123.76      27.02       109.07      
C           124.79      26.02       109.26      
C           123.82      21.32       114.85      
C           122.65      21.32       115.62      
C           121.85      22.45       115.52      
C           122.12      23.65       114.7       
C           123.51      27.74       107.92      
C           124.41      27.48       106.89      
C           125.5       26.59       107.07      
C           125.69      25.87       108.22      
C           124.9       21.2        111.89      
C           126.51      22.36       113.61      
C           121.51      26.64       109.92      
C           122.99      28.5        111.13      
H           122.21      26.05       112.89      
H           126.06      23.77       110.46      
H           122.73      28.37       107.78      
H           126.56      25.2        108.3       
H           124.51      20.55       114.93      
H           121.46      24.5        114.57      
H           125.68      21.0        111.11      
H           124.95      20.35       112.59      
H           123.86942   21.09412    111.55118   
H           126.5       23.18       114.4       
H           126.78      21.38       114.09      
H           127.26358   22.70322    112.90119   
H           122.87      29.22       110.28      
H           124.02      28.6        111.55      
H           122.22504   28.63334    111.89496   
H           120.85      26.52       110.81      
H           121.13      27.36       109.19      
H           121.52414   25.63604    109.49579   
H           122.68      19.29       116.65      
H           123.71      28.77       105.23      
S           120.44      22.13       116.59      
C           122.13      20.22       116.44      
C           121.01      20.59       117.1       
C           126.93      28.84       100.77      
C           125.97      29.58       101.47      
C           127.41      27.73       101.53      
N           125.31      30.61       100.9       
N           124.59      30.13       103.18      
S           124.1       31.08       101.91      
H           127.48      26.41       103.2       
H           128.13      27.13       101.02      
C           126.89      27.28       102.78      
C           125.49      29.18       102.8       
C           125.92      27.97       103.49      
C           131.98      31.45       85.22       
C           132.12      30.18       85.73       
S           131.27      32.52       86.41       
C           129.62      28.74       91.13       
C           129.38      30.07       90.64       
C           128.78      31.06       91.43       
C           128.43      30.7        92.75       
C           128.72      29.46       93.27       
C           129.33      28.4        92.48       
C           127.74      31.56       93.78       
C           127.78      30.67       95.0        
C           128.3       29.41       94.69       
C           130.14      27.84       89.98       
C           130.47      28.96       88.97       
C           129.96      30.19       89.31       
C           127.3       30.97       96.19       
C           127.4       30.06       97.23       
C           127.9       28.77       96.96       
C           128.43      28.42       95.73       
C           131.1       28.87       87.7        
C           131.34      30.03       86.9        
C           130.81      31.19       87.39       
C           130.09      31.34       88.57       
C           128.42      32.9        94.05       
C           126.27      31.71       93.42       
C           131.44      27.06       90.29       
C           129.1       26.9        89.35       
H           129.53      27.37       92.84       
H           128.7       32.13       91.1        
H           131.48      27.97       87.3        
H           129.63      32.3        88.85       
H           126.8       31.9        96.26       
H           128.91      27.48       95.66       
H           128.3       33.62       93.26       
H           127.92      33.29       94.9        
H           129.45926   32.83413    94.37202    
H           125.78      30.73       93.49       
H           125.74      32.35       94.19       
H           126.06169   32.20564    92.47182    
H           129.59      26.15       88.7        
H           128.39      27.36       88.74       
H           128.48936   26.35478    90.06969    
H           131.21      26.26       90.99       
H           131.82      26.56       89.35       
H           132.26494   27.70004    90.60291    
H           126.81      31.21       98.96       
H           132.65      29.34       85.2        
S           127.94      27.76       98.42       
C           127.12      30.26       98.6        
C           127.29      29.17       99.35       
C           133.52      33.57       81.68       
C           133.89      32.21       81.91       
C           132.71      34.03       82.64       
N           134.81      31.57       81.25       
N           133.73      30.19       83.05       
S           134.69      30.02       81.74       
H           131.69      34.04       84.52       
H           132.36      35.05       82.63       
C           132.18      33.4        83.8        
C           133.35      31.48       83.03       
C           132.52      32.09       84.03       
C           137.08      43.6        69.3        
C           137.4       42.32       69.3        
S           135.78      43.83       70.47       
C           135.74      38.24       73.45       
C           135.25      39.58       73.6        
C           134.79      40.01       74.8        
C           134.76      39.22       75.91       
C           135.21      37.9        75.77       
C           135.61      37.3        74.53       
C           134.18      39.51       77.26       
C           134.32      38.13       77.84       
C           135.01      37.21       76.97       
C           136.3       38.01       72.09       
C           136.23      39.52       71.61       
C           135.5       40.39       72.47       
C           133.8       37.79       79.1        
C           134.02      36.42       79.36       
C           134.67      35.52       78.51       
C           135.2       35.88       77.32       
C           136.83      40.06       70.46       
C           136.73      41.47       70.27       
C           135.88      42.21       71.11       
C           135.19      41.68       72.16       
C           135.04      40.61       77.93       
C           132.72      39.93       77.1        
C           137.67      37.35       72.34       
C           135.37      37.05       71.3        
H           135.92      36.25       74.39       
H           134.44      41.05       74.86       
H           137.57      39.54       69.81       
H           134.62      42.32       72.81       
H           133.19      38.48       79.76       
H           135.68      35.2        76.63       
H           134.72      41.52       77.39       
H           136.04      40.55       77.57       
H           135.0048    40.71561    79.0143     
H           132.59      40.82       76.5        
H           132.24      40.16       78.05       
H           132.16215   39.18855    76.52803    
H           135.34      36.17       71.79       
H           134.3       37.39       71.37       
H           135.64553   36.98642    70.24732    
H           138.19      37.3        71.4        
H           137.52      36.31       72.5        
H           138.25569   37.8714     73.09711    
H           132.95      36.29       81.2        
H           137.99      41.95       68.5        
S           134.8       33.98       79.24       
C           133.56      35.75       80.49       
C           133.93      34.46       80.62       
C           138.16      47.03       66.63       
C           138.3       45.7        66.17       
C           137.54      47.14       67.82       
N           138.84      45.3        65.02       
N           138.24      43.42       66.52       
S           138.75      43.68       64.97       
H           136.62      46.23       69.59       
H           137.36      48.07       68.28       
C           137.18      46.03       68.67       
C           137.83      44.58       66.99       
C           137.26      44.72       68.29       
C           139.88      61.69       59.3        
C           139.63      61.52       60.62       
S           140.24      60.19       58.54       
C           139.63      56.11       63.39       
C           139.83      56.15       61.95       
C           139.8       54.94       61.3        
C           139.69      53.75       62.0        
C           139.5       53.8        63.41       
C           139.43      54.97       64.15       
C           139.44      52.38       61.38       
C           139.12      51.6        62.62       
C           139.35      52.42       63.8        
C           139.62      57.54       63.93       
C           139.75      58.32       62.61       
C           140.01      57.48       61.51       
C           138.85      50.22       62.8        
C           138.86      49.65       64.1        
C           139.03      50.51       65.22       
C           139.38      51.84       65.05       
C           139.64      59.61       62.34       
C           139.79      60.15       61.07       
C           140.1       59.25       60.04       
C           140.26      57.87       60.2        
C           138.32      52.46       60.4        
C           140.71      51.8        60.76       
C           138.25      57.81       64.55       
C           140.71      57.86       64.89       
H           139.33      54.97       65.25       
H           139.94      54.89       60.25       
H           139.32      60.14       63.27       
H           140.48      57.18       59.4        
H           138.65      49.66       61.9        
H           139.63      52.42       65.99       
H           138.55      51.67       59.64       
H           138.25      53.42       59.83       
H           137.3372    52.42439    60.87004    
H           141.5       51.67       61.54       
H           140.44      50.81       60.28       
H           141.1395    52.34919    59.92213    
H           140.31      57.66       65.9        
H           141.0       58.91       64.78       
H           141.63209   57.31546    64.6867     
H           138.22      57.33       65.51       
H           138.03      58.9        64.75       
H           137.46143   57.44338    63.89285    
H           138.24      47.46       63.74       
H           139.51      62.29       61.31       
S           139.05      49.52       66.64       
C           138.55      48.27       64.41       
C           138.48      48.14       65.78       
C           140.12      65.25       56.7        
C           140.35      65.36       58.16       
C           139.81      64.03       56.3        
N           140.55      66.44       58.85       
N           140.57      64.4        60.34       
S           140.82      66.0        60.43       
H           139.32      62.08       56.77       
H           139.7       63.69       55.32       
C           139.85      62.95       57.18       
C           140.37      64.17       59.06       
C           140.07      62.9        58.55       
C           139.76      79.64       48.79       
C           140.67      79.45       49.83       
S           138.95      78.12       48.35       
C           141.59      73.98       52.33       
C           140.75      74.15       51.26       
C           140.06      73.05       50.72       
C           140.1       71.85       51.41       
C           140.92      71.82       52.61       
C           141.65      72.87       53.11       
C           139.57      70.47       51.05       
C           139.89      69.67       52.34       
C           140.54      70.56       53.28       
C           142.33      75.36       52.55       
C           141.56      76.25       51.55       
C           140.75      75.46       50.77       
C           139.6       68.36       52.62       
C           140.04      67.8        53.89       
C           140.6       68.77       54.82       
C           140.89      70.13       54.53       
C           141.61      77.59       51.3        
C           140.84      78.09       50.24       
C           139.93      77.24       49.53       
C           139.89      75.9        49.83       
C           138.02      70.5        50.64       
C           140.44      69.77       49.9        
C           142.21      75.88       54.02       
C           143.8       75.33       52.13       
H           142.14      72.84       54.07       
H           139.59      73.22       49.76       
H           142.25      78.29       51.84       
H           139.24      75.26       49.31       
H           139.37      67.71       51.82       
H           141.51      70.7        55.18       
H           137.78      71.24       49.89       
H           137.46      70.8        51.55       
H           137.59774   69.54812    50.31794    
H           139.95      69.66       48.91       
H           140.58      68.76       50.26       
H           141.36174   70.29966    49.65925    
H           144.4       75.51       53.04       
H           143.99      76.18       51.49       
H           144.07443   74.38062    51.67014    
H           142.88      75.35       54.7        
H           141.22      75.74       54.46       
H           142.50552   76.91432    54.19591    
H           139.42      65.72       53.87       
H           141.27      80.34       50.17       
S           141.03      67.87       56.28       
C           139.91      66.5        54.46       
C           140.3       66.39       55.77       
C           137.99      83.23       46.94       
C           139.13      83.32       47.79       
C           137.61      81.94       46.72       
N           139.69      84.47       48.26       
N           140.83      82.44       49.18       
S           140.84      84.08       49.36       
H           137.77      79.88       46.94       
H           136.76      81.69       46.1        
C           138.22      80.8        47.28       
C           139.81      82.15       48.28       
C           139.33      80.81       48.05       
C           128.87      95.83       41.93       
C           128.33      94.58       42.23       
S           130.52      95.95       42.46       
C           132.06      89.83       43.12       
C           132.76      91.07       43.09       
C           134.12      91.18       43.39       
C           134.77      90.06       43.78       
C           134.07      88.83       43.78       
C           132.71      88.7        43.4        
C           136.21      89.87       44.3        
C           136.24      88.37       44.36       
C           134.93      87.81       44.27       
C           130.56      89.96       42.73       
C           130.46      91.5        42.71       
C           131.73      92.11       42.85       
C           137.26      87.56       44.74       
C           136.97      86.37       45.25       
C           135.65      85.75       45.19       
C           134.69      86.45       44.52       
C           129.26      92.24       42.69       
C           129.38      93.64       42.44       
C           130.72      94.22       42.57       
C           131.87      93.5        42.79       
C           137.3       90.31       43.35       
C           136.48      90.49       45.72       
C           130.21      89.33       41.35       
C           129.53      89.48       43.78       
H           132.18      87.74       43.51       
H           134.63      92.12       43.45       
H           128.23      91.82       42.67       
H           132.83      93.96       43.08       
H           138.22      88.04       44.9        
H           133.69      86.0        44.42       
H           137.34      91.35       43.1        
H           138.28      90.24       43.8        
H           137.26325   89.77348    42.4019     
H           135.85      90.12       46.61       
H           137.51      90.21       46.11       
H           136.3081    91.56264    45.80939    
H           128.47      89.77       43.55       
H           129.68      89.85       44.8        
H           129.50068   88.39524    43.88261    
H           130.29      88.2        41.31       
H           129.18      89.5        41.12       
H           130.70896   89.75768    40.48039    
H           139.0       85.76       45.85       
H           127.25      94.34       42.19       
S           135.72      84.16       45.78       
C           137.96      85.46       45.78       
C           137.42      84.34       46.25       
C           126.17      99.41       42.29       
C           127.39      99.41       41.5        
C           125.95      98.19       42.78       
N           127.85      100.49      40.85       
N           129.48      98.6        40.7        
S           129.36      100.21      40.28       
H           126.31      96.15       42.81       
H           124.97      97.85       43.16       
C           126.8       97.02       42.58       
C           128.32      98.27       41.26       
C           128.0       97.0        41.87       
C           112.15      107.78      39.61       
C           112.26      106.48      39.97       
S           113.74      108.59      39.65       
C           117.38      103.88      41.98       
C           117.52      105.2       41.47       
C           118.76      105.79      41.15       
C           119.93      105.0       41.26       
C           119.81      103.7       41.81       
C           118.55      103.15      42.22       
C           121.37      105.29      40.74       
C           122.12      104.0       41.34       
C           121.13      103.09      41.89       
C           116.01      103.41      41.85       
C           115.31      104.73      41.45       
C           116.21      105.81      41.28       
C           123.46      103.57      41.19       
C           123.76      102.24      41.71       
C           122.81      101.47      42.34       
C           121.44      101.82      42.31       
C           113.92      104.9       41.2        
C           113.53      106.15      40.58       
C           114.45      107.22      40.46       
C           115.82      107.05      40.72       
C           121.37      105.42      39.19       
C           122.1       106.52      41.38       
C           115.88      102.31      40.78       
C           115.66      102.93      43.3        
H           118.53      102.17      42.73       
H           118.82      106.88      40.76       
H           113.17      104.12      41.15       
H           116.55      107.83      40.45       
H           124.25      104.23      40.75       
H           120.76      101.19      42.85       
H           120.84      106.4       39.0        
H           122.38      105.46      38.83       
H           120.82848   104.65465   38.63404    
H           121.73      107.55      41.09       
H           123.19      106.5       41.18       
H           122.08572   106.61996   42.46531    
H           116.29      102.11      43.56       
H           115.98      103.71      43.97       
H           114.6216    102.66488   43.49884    
H           114.86      102.0       40.72       
H           116.32      101.39      41.18       
H           116.25405   102.57819   39.79194    
H           125.95      102.21      41.36       
H           111.52      105.75      39.75       
S           123.53      99.94       42.94       
C           125.04      101.71      41.81       
C           125.14      100.42      42.39       
C           108.96      110.04      37.63       
C           108.89      108.6       37.66       
C           109.98      110.59      38.37       
N           108.03      107.82      36.99       
N           109.83      106.55      38.17       
S           108.43      106.28      37.31       
H           111.84      110.39      39.49       
H           110.1       111.63      38.49       
C           111.01      109.81      38.99       
C           109.84      107.84      38.46       
C           111.0       108.47      39.07       
H           66.83       9.02        95.02       
H           108.54      110.67      36.87       
