612

C           87.82       42.14       72.73       
C           87.29       40.9        72.43       
S           88.36       42.08       74.38       
C           85.86       36.43       76.16       
C           86.56       37.53       76.67       
C           87.03       37.46       78.0        
C           86.83       36.25       78.72       
C           85.98       35.24       78.16       
C           85.49       35.34       76.86       
C           87.36       35.89       80.1        
C           86.66       34.55       80.3        
C           86.05       34.09       79.08       
C           85.56       36.68       74.63       
C           86.23       38.07       74.49       
C           86.82       38.52       75.7        
C           86.74       33.72       81.36       
C           86.34       32.38       81.27       
C           85.81       31.97       79.95       
C           85.5        32.8        78.94       
C           86.41       38.77       73.39       
C           86.96       40.01       73.51       
C           87.54       40.5        74.65       
C           87.45       39.8        75.82       
C           88.87       35.75       80.13       
C           86.83       36.88       81.23       
C           86.3        35.63       73.73       
C           84.07       36.82       74.2        
H           84.89       34.5        76.47       
H           87.78       38.24       78.32       
H           86.09       38.44       72.41       
H           87.93       40.15       76.77       
H           87.25       34.08       82.23       
H           85.0        32.43       78.09       
H           89.27       36.55       79.51       
H           89.27       36.05       81.13       
H           89.3429     34.81832    79.81944    
H           85.77       36.88       81.06       
H           86.93       36.5        82.19       
H           87.25067    37.88533    81.20861    
H           83.68       35.86       73.87       
H           84.01       37.36       73.21       
H           83.48274    37.39276    74.91776    
H           85.71       34.71       73.63       
H           86.35       36.02       72.69       
H           87.32149    35.38368    74.01979    
H           86.7        31.4        83.16       
H           87.1        40.67       71.37       
S           85.43       30.26       80.0        
C           86.44       31.28       82.13       
C           86.03       30.07       81.64       
C           89.73       45.16       70.08       
C           89.21       45.53       71.32       
C           89.36       43.9        69.63       
N           89.27       46.77       71.92       
N           88.24       45.08       73.43       
S           88.49       46.7        73.34       
H           88.72       41.99       70.14       
H           89.81       43.47       68.71       
C           88.71       42.99       70.53       
C           88.54       44.55       72.25       
C           88.34       43.18       71.85       
C           99.52       53.09       60.11       
C           98.98       51.91       59.55       
S           98.37       53.97       61.18       
C           94.18       49.47       62.37       
C           94.48       50.83       62.71       
C           94.13       51.41       63.9        
C           93.53       50.61       64.89       
C           93.22       49.28       64.54       
C           93.41       48.77       63.28       
C           92.86       51.0        66.21       
C           92.52       49.59       66.77       
C           92.62       48.57       65.73       
C           95.05       49.0        61.21       
C           95.89       50.23       60.95       
C           95.48       51.27       61.77       
C           91.92       49.3        67.99       
C           91.47       47.98       68.15       
C           91.6        46.99       67.12       
C           92.2        47.28       65.9        
C           96.91       50.37       60.08       
C           97.7        51.55       60.14       
C           97.29       52.55       61.11       
C           96.14       52.49       61.84       
C           93.8        51.72       67.14       
C           91.56       51.74       66.04       
C           95.87       47.78       61.73       
C           94.3        48.61       59.85       
H           93.12       47.73       63.12       
H           94.56       52.36       64.2        
H           97.18       49.64       59.41       
H           95.8        53.28       62.52       
H           91.87       50.07       68.7        
H           92.25       46.53       65.1        
H           94.05       52.6        66.6        
H           93.27       51.91       68.07       
H           94.62397    51.06627    67.42601    
H           90.95       51.05       65.41       
H           90.98       51.8        67.0        
H           91.6647     52.7521     65.64912    
H           95.06       48.23       59.12       
H           94.02       49.59       59.45       
H           93.44268    47.94       59.91484    
H           95.17       47.01       62.01       
H           96.51       47.39       60.92       
H           96.43871    48.01872    62.62871    
H           90.69       47.96       70.18       
H           99.59       51.34       58.83       
S           90.97       45.42       67.58       
C           90.87       47.35       69.29       
C           90.51       46.06       69.18       
C           103.64      54.67       60.25       
C           103.39      53.3        60.07       
C           102.45      55.43       60.35       
N           104.29      52.36       59.85       
N           101.97      51.42       59.61       
S           103.52      50.93       59.53       
H           100.35      55.53       60.34       
H           102.46      56.55       60.4        
C           101.17      54.85       60.25       
C           102.04      52.76       59.87       
C           100.87      53.56       60.11       
C           117.66      63.1        61.81       
C           116.75      63.52       60.88       
S           117.08      61.71       62.65       
C           111.45      60.53       59.91       
C           112.46      59.91       60.72       
C           112.35      58.62       61.33       
C           111.11      58.01       61.17       
C           110.09      58.56       60.38       
C           110.3       59.84       59.7        
C           110.75      56.53       61.54       
C           109.39      56.48       60.88       
C           108.98      57.7        60.35       
C           112.09      61.85       59.32       
C           113.36      61.99       60.16       
C           113.49      60.9        61.0        
C           108.56      55.42       61.06       
C           107.24      55.66       60.66       
C           106.84      56.87       60.07       
C           107.73      57.92       59.89       
C           114.37      62.98       60.15       
C           115.57      62.74       60.81       
C           115.65      61.65       61.7        
C           114.6       60.8        61.83       
C           111.69      55.49       60.9        
C           110.5       56.23       62.98       
C           112.4       61.52       57.77       
C           111.31      63.18       59.47       
H           109.47      60.4        59.24       
H           113.18      58.28       62.03       
H           114.27      63.87       59.59       
H           114.78      59.92       62.37       
H           108.86      54.48       61.54       
H           107.46      58.87       59.43       
H           112.79      55.61       61.26       
H           111.35      54.57       61.14       
H           111.73258   55.57516    59.81417    
H           109.61      56.82       63.14       
H           110.34      55.2        62.98       
H           111.2665    56.38628    63.73905    
H           111.85      63.93       58.95       
H           111.42      63.53       60.5        
H           110.25058   63.16578    59.21403    
H           111.44      61.27       57.3        
H           113.04      62.34       57.35       
H           113.02299   60.63206    57.66259    
H           106.29      53.83       61.24       
H           116.9       64.41       60.31       
S           105.12      56.93       59.81       
C           106.12      54.78       60.78       
C           104.96      55.27       60.43       
C           121.67      64.51       63.12       
C           120.94      65.28       62.12       
C           121.02      63.43       63.64       
N           121.32      66.4        61.5        
N           119.02      65.85       60.92       
S           120.21      66.85       60.37       
H           119.41      62.12       63.6        
H           121.51      62.86       64.48       
C           119.72      63.04       63.15       
C           119.54      64.92       61.74       
C           118.92      63.71       62.27       
C           135.97      66.35       71.46       
C           135.06      65.35       71.69       
S           135.27      67.48       70.35       
C           129.88      64.86       68.56       
C           130.53      66.13       68.39       
C           129.92      67.22       67.68       
C           128.71      66.99       67.07       
C           128.09      65.73       67.2        
C           128.65      64.68       67.95       
C           127.81      67.94       66.35       
C           126.63      67.02       65.91       
C           126.89      65.7        66.4        
C           130.64      63.96       69.52       
C           131.73      64.88       70.02       
C           131.76      66.01       69.15       
C           125.52      67.33       65.11       
C           124.72      66.23       64.67       
C           125.0       64.96       65.21       
C           126.01      64.68       66.05       
C           132.71      64.63       70.95       
C           133.81      65.46       71.0        
C           133.9       66.54       70.08       
C           132.86      66.78       69.17       
C           127.21      69.0        67.29       
C           128.48      68.63       65.12       
C           129.75      63.47       70.66       
C           131.34      62.82       68.87       
H           128.15      63.73       68.02       
H           130.33      68.28       67.67       
H           132.8       63.71       71.55       
H           132.93      67.63       68.42       
H           125.23      68.32       64.87       
H           126.25      63.66       66.38       
H           126.68      69.71       66.66       
H           128.04      69.55       67.67       
H           126.63951   68.59685    68.12672    
H           129.26      69.24       65.55       
H           127.82      69.24       64.55       
H           129.08961   67.96302    64.51039    
H           132.21      62.57       69.41       
H           131.84      63.22       67.99       
H           130.7278    61.97558    68.55334    
H           130.4       62.87       71.32       
H           128.89      62.84       70.41       
H           129.34266   64.31229    71.21922    
H           123.16      67.05       63.37       
H           135.24      64.56       72.4        
S           123.9       63.72       64.62       
C           123.54      66.15       63.88       
C           122.95      64.92       63.74       
C           140.11      67.05       72.87       
C           139.34      65.93       73.39       
C           139.42      67.8        71.93       
N           139.76      65.07       74.37       
N           137.29      64.72       73.83       
S           138.43      64.28       74.93       
H           137.73      68.26       70.77       
H           139.72      68.72       71.42       
C           138.1       67.54       71.57       
C           137.88      65.74       73.09       
C           137.32      66.5        72.0        
C           154.49      73.67       77.15       
C           153.81      74.3        76.14       
S           153.66      72.2        77.63       
C           148.82      71.79       73.75       
C           149.52      71.0        74.67       
C           149.11      69.73       75.02       
C           147.99      69.17       74.52       
C           147.18      69.96       73.72       
C           147.55      71.29       73.29       
C           147.48      67.75       74.71       
C           146.12      67.84       74.05       
C           145.94      69.12       73.52       
C           149.43      73.19       73.58       
C           150.72      73.03       74.41       
C           150.65      71.8        75.15       
C           145.02      66.97       74.05       
C           143.7       67.41       73.6        
C           143.61      68.71       73.11       
C           144.73      69.54       72.96       
C           151.71      73.99       74.73       
C           152.59      73.66       75.71       
C           152.45      72.35       76.33       
C           151.52      71.37       76.05       
C           148.35      66.74       73.92       
C           147.33      67.38       76.19       
C           149.73      73.47       72.1        
C           148.39      74.19       74.16       
H           146.8       71.94       72.8        
H           149.61      69.17       75.8        
H           151.68      74.97       74.35       
H           151.3       70.54       76.7        
H           145.19      65.99       74.46       
H           144.68      70.52       72.48       
H           148.61      65.81       74.5        
H           149.28      67.26       73.88       
H           148.10226   66.65296    72.8621     
H           148.22      67.61       76.73       
H           147.11      66.33       76.2        
H           146.56605   67.92976    76.73976    
H           147.5       74.29       73.53       
H           147.97      74.0        75.13       
H           148.75544   75.21605    74.20217    
H           148.89      73.96       71.62       
H           150.5       74.22       72.08       
H           150.03994   72.56837    71.5717     
H           142.25      65.74       74.19       
H           154.24      75.2        75.65       
S           142.03      69.01       72.61       
C           142.47      66.72       73.7        
C           141.45      67.43       73.16       
C           158.17      74.78       79.29       
C           158.07      74.99       77.85       
C           157.14      73.98       79.76       
N           158.98      75.59       77.1        
N           156.89      75.04       75.83       
S           158.37      75.71       75.6        
H           155.15      73.17       79.7        
H           157.14      73.64       80.8        
C           155.99      73.61       79.01       
C           156.87      74.62       77.11       
C           155.75      73.98       77.76       
C           170.48      70.9        88.71       
C           169.14      70.59       88.89       
S           170.69      71.95       87.33       
C           164.69      73.68       86.09       
C           165.99      73.82       85.55       
C           166.23      74.59       84.38       
C           165.12      74.98       83.64       
C           163.86      74.79       84.24       
C           163.62      74.15       85.4        
C           165.0       75.42       82.22       
C           163.51      75.61       82.04       
C           162.9       75.28       83.28       
C           164.6       72.64       87.28       
C           166.11      72.25       87.35       
C           166.88      73.12       86.44       
C           162.77      75.93       80.94       
C           161.36      75.66       80.97       
C           160.74      75.32       82.2        
C           161.47      75.25       83.34       
C           166.8       71.32       88.14       
C           168.22      71.32       88.09       
C           168.93      72.21       87.23       
C           168.28      73.08       86.32       
C           165.85      76.67       82.06       
C           165.44      74.26       81.3        
C           164.13      73.18       88.68       
C           163.62      71.51       86.8        
H           162.6       73.95       85.71       
H           167.12      74.65       83.9        
H           166.34      70.7        88.9        
H           168.9       73.67       85.66       
H           163.3       76.08       79.94       
H           161.08      74.87       84.25       
H           166.76      76.54       82.5        
H           165.3       77.36       82.69       
H           165.90573   77.10888    81.06382    
H           166.49      74.26       81.33       
H           165.14      74.44       80.33       
H           165.12765   73.2822     81.66667    
H           162.55      71.88       86.79       
H           163.75      71.14       85.79       
H           163.67828   70.63576    87.44839    
H           165.1       73.29       89.21       
H           163.52      72.45       89.17       
H           163.67634   74.17108    88.68698    
H           160.68      75.88       78.93       
H           168.79      69.82       89.6        
S           159.05      74.93       81.91       
C           160.45      75.62       79.9        
C           159.23      75.13       80.15       
C           174.38      69.77       90.73       
C           173.11      69.14       91.06       
C           174.23      70.71       89.74       
N           172.94      68.21       91.98       
N           170.79      68.91       91.02       
S           171.3       67.85       92.1        
H           173.04      71.94       88.38       
H           175.12      71.29       89.43       
C           172.99      71.16       89.13       
C           171.81      69.56       90.45       
C           171.71      70.55       89.47       
C           189.7       65.14       95.21       
C           189.67      66.11       94.27       
S           188.4       65.3        96.35       
C           184.12      68.11       92.55       
C           184.23      67.38       93.78       
C           183.08      67.06       94.54       
C           181.81      67.48       94.09       
C           181.68      68.0        92.75       
C           182.86      68.28       91.96       
C           180.46      67.34       94.7        
C           179.55      67.72       93.49       
C           180.26      68.22       92.36       
C           185.52      68.43       91.99       
C           186.39      67.67       93.05       
C           185.62      67.08       94.08       
C           178.18      67.77       93.57       
C           177.46      68.33       92.48       
C           178.17      68.78       91.36       
C           179.6       68.71       91.28       
C           187.73      67.39       93.08       
C           188.33      66.74       94.15       
C           187.5       66.33       95.21       
C           186.13      66.45       95.2        
C           180.17      65.92       95.38       
C           180.22      68.43       95.76       
C           185.97      67.91       90.61       
C           185.79      69.96       92.09       
H           182.79      68.57       90.92       
H           183.18      66.52       95.47       
H           188.35      67.67       92.23       
H           185.51      66.16       96.09       
H           177.63      67.48       94.47       
H           180.08      68.98       90.34       
H           180.78      65.75       96.27       
H           179.12      65.87       95.69       
H           180.39996   65.09074    94.71102    
H           179.96      69.38       95.3        
H           179.23      68.19       96.2        
H           180.9835    68.45121    96.53764    
H           186.92      70.16       92.19       
H           185.26      70.25       92.96       
H           185.29884   70.57044    91.33222    
H           185.44      68.31       89.71       
H           187.02      68.23       90.46       
H           185.94837   66.82107    90.56673    
H           175.29      68.17       92.9        
H           190.43      66.21       93.55       
S           177.07      69.58       90.21       
C           176.06      68.62       92.29       
C           175.71      69.33       91.21       
C           192.43      61.67       95.59       
C           192.95      62.94       95.19       
C           191.1       61.72       96.0        
N           194.17      63.23       94.66       
N           192.68      65.25       94.68       
S           194.22      64.84       94.18       
H           189.23      62.69       96.13       
H           190.54      60.79       96.22       
C           190.26      62.88       95.92       
C           192.13      64.13       95.22       
C           190.74      64.1        95.55       
C           199.72      46.79       96.19       
C           198.42      46.96       96.54       
S           200.38      48.26       95.4        
C           195.38      52.15       95.88       
C           196.75      52.19       95.44       
C           197.35      53.25       94.84       
C           196.58      54.43       94.82       
C           195.3       54.46       95.3        
C           194.67      53.35       95.85       
C           197.03      55.76       94.23       
C           195.85      56.67       94.59       
C           194.79      55.88       95.16       
C           195.05      50.84       96.68       
C           196.32      50.06       96.34       
C           197.3       50.9        95.61       
C           195.8       57.99       94.48       
C           194.67      58.67       95.06       
C           193.65      57.87       95.49       
C           193.67      56.53       95.58       
C           196.65      48.84       96.77       
C           197.92      48.31       96.36       
C           198.88      49.13       95.73       
C           198.57      50.42       95.28       
C           198.34      56.17       95.0        
C           197.42      55.51       92.77       
C           194.8       50.94       98.21       
C           193.91      50.04       96.0        
H           193.67      53.47       96.28       
H           198.39      53.23       94.61       
H           195.85      48.17       97.27       
H           199.25      50.98       94.7        
H           196.56      58.58       94.06       
H           192.91      56.06       96.08       
H           199.08      55.35       94.96       
H           198.09      56.1        96.11       
H           198.82152   57.12562    94.79258    
H           198.04      54.67       92.75       
H           197.89      56.38       92.37       
H           196.55585   55.21005    92.17723    
H           193.89      49.05       96.52       
H           194.11      49.88       94.91       
H           192.91067   50.46225    96.10556    
H           194.91      50.02       98.72       
H           193.81      51.25       98.52       
H           195.53475   51.60992    98.65661    
H           195.07      60.93       94.89       
H           197.83      46.2        96.96       
S           192.36      58.92       96.0        
C           194.39      60.12       95.11       
C           193.15      60.39       95.55       
C           201.94      42.97       96.85       
C           202.67      44.21       96.7        
C           200.58      43.15       96.95       
N           204.01      44.38       96.76       
N           202.8       46.41       96.08       
S           204.32      45.92       96.58       
H           198.76      44.3        96.63       
H           200.0       42.26       97.16       
C           199.9       44.38       96.64       
C           201.93      45.39       96.3        
C           200.52      45.56       96.33       
C           208.36      28.53       100.1       
C           207.05      28.79       100.25      
S           209.04      29.54       98.79       
C           204.18      33.6        98.08       
C           205.45      33.36       97.48       
C           206.12      34.27       96.69       
C           205.55      35.55       96.53       
C           204.31      35.8        97.16       
C           203.64      34.85       97.93       
C           206.32      36.91       96.28       
C           205.21      37.89       96.52       
C           204.08      37.22       97.08       
C           203.7       32.45       98.97       
C           205.03      31.64       99.03       
C           206.0       32.17       98.11       
C           205.05      39.25       96.14       
C           203.93      39.99       96.53       
C           202.98      39.35       97.31       
C           202.97      37.98       97.49       
C           205.29      30.5        99.72       
C           206.56      29.93       99.63       
C           207.55      30.48       98.72       
C           207.27      31.57       97.9        
C           207.5       37.12       97.24       
C           206.73      37.02       94.8        
C           203.32      33.0        100.39      
C           202.5       31.68       98.29       
H           202.71      35.07       98.47       
H           207.18      34.19       96.54       
H           204.55      30.18       100.43      
H           208.01      32.08       97.23       
H           205.83      39.72       95.52       
H           202.18      37.43       97.99       
H           208.36      36.48       97.01       
H           207.9       38.11       97.17       
H           207.21654   36.85107    98.25756    
H           205.78      36.92       94.23       
H           207.1       38.0        94.55       
H           207.50309   36.32124    94.48036    
H           201.6       31.78       98.87       
H           202.7       30.66       98.17       
H           202.27152   32.02986    97.28327    
H           202.62      33.83       100.27      
H           204.16      33.36       100.91      
H           202.85975   32.22561    101.00367   
H           203.96      41.92       95.56       
H           206.44      28.21       100.9       
S           201.61      40.37       97.8        
C           203.55      41.26       96.26       
C           202.44      41.64       96.88       
C           211.27      26.09       102.42      
C           209.9       25.87       102.53      
C           211.64      26.9        101.39      
N           209.39      25.15       103.57      
N           207.67      26.32       102.14      
S           207.75      25.3        103.42      
H           211.0       28.33       99.77       
H           212.69      27.04       101.15      
C           210.64      27.67       100.59      
C           208.86      26.64       101.78      
C           209.27      27.66       100.84      
C           222.51      17.94       111.5       
C           221.25      17.45       111.29      
S           222.61      19.56       110.77      
C           216.87      20.64       108.47      
C           218.02      21.35       108.75      
C           218.38      22.63       108.24      
C           217.45      23.16       107.41      
C           216.22      22.48       107.16      
C           215.9       21.28       107.77      
C           217.4       24.49       106.69      
C           215.99      24.58       106.11      
C           215.47      23.24       106.17      
C           216.84      19.23       109.09      
C           218.27      19.2        109.7       
C           218.94      20.38       109.38      
C           215.51      25.57       105.27      
C           214.27      25.26       104.55      
C           213.72      23.96       104.7       
C           214.29      22.92       105.5       
C           218.96      18.23       110.34      
C           220.3       18.37       110.69      
C           220.92      19.58       110.31      
C           220.3       20.57       109.61      
C           217.7       25.74       107.65      
C           218.31      24.56       105.42      
C           215.77      19.19       110.21      
C           216.8       18.09       108.08      
H           214.94      20.86       107.61      
H           219.47      22.97       108.24      
H           218.4       17.3        110.46      
H           220.85      21.41       109.29      
H           216.09      26.51       105.22      
H           213.81      21.95       105.53      
H           218.66      25.69       108.08      
H           217.6       26.73       107.21      
H           217.01431   25.69623    108.49617   
H           218.07      23.69       104.84      
H           217.96      25.44       104.81      
H           219.36862   24.64642    105.66485   
H           217.18      17.25       108.7       
H           217.63      18.39       107.33      
H           215.81575   17.83855    107.68486   
H           215.26      18.28       110.24      
H           215.06      19.94       109.95      
H           216.0651    19.52829    111.20327   
H           213.66      27.14       103.5       
H           220.89      16.5        111.58      
S           212.26      23.81       103.77      
C           213.46      26.11       103.74      
C           212.3       25.49       103.31      
C           226.06      16.57       113.87      
C           224.94      15.73       113.6       
C           225.88      17.8        113.28      
N           224.8       14.43       113.98      
N           222.65      15.36       112.84      
S           223.25      13.98       113.49      
H           224.87      19.21       111.98      
H           226.63      18.53       113.48      
C           224.81      18.23       112.45      
C           223.72      16.19       112.89      
C           223.71      17.44       112.21      
H           85.92       29.19       82.27       
H           227.03      16.16       114.08      
