612

C           23.94       14.57       101.47      
C           23.17       13.88       102.31      
S           23.51       14.2        99.76       
C           18.88       9.9         100.93      
C           19.53       10.45       99.84       
C           19.19       10.05       98.55       
C           18.07       9.32        98.34       
C           17.43       8.7         99.5        
C           17.8        9.02        100.79      
C           17.35       8.99        96.99       
C           16.26       8.07        97.48       
C           16.24       7.96        98.9        
C           19.38       10.53       102.2       
C           20.44       11.46       101.68      
C           20.49       11.44       100.26      
C           15.28       7.5         96.72       
C           14.13       6.97        97.41       
C           14.11       6.84        98.84       
C           15.21       7.32        99.62       
C           21.21       12.37       102.38      
C           22.17       13.12       101.74      
C           22.27       13.06       100.32      
C           21.38       12.27       99.54       
C           16.74       10.26       96.28       
C           18.19       8.12        96.0        
C           18.15       11.26       102.83      
C           19.94       9.53        103.23      
H           17.14       8.77        101.7       
H           19.69       10.54       97.69       
H           21.05       12.51       103.47      
H           21.32       12.37       98.41       
H           15.19       7.5         95.61       
H           15.18       7.28        100.69      
H           17.64       10.85       95.98       
H           16.16       9.88        95.46       
H           16.16061    10.86085    96.98099    
H           18.61       7.32        96.59       
H           17.53       7.76        95.23       
H           19.0596     8.64746     95.60797    
H           19.08       9.06        103.82      
H           20.61       9.99        104.05      
H           20.59446    8.78503     102.77745   
H           17.4        10.57       102.98      
H           18.28       11.54       103.82      
H           17.82568    12.18361    102.35057   
H           12.84       6.14        95.86       
H           23.28       13.98       103.4       
S           12.64       6.04        99.42       
C           12.92       6.34        96.87       
C           12.07       5.8         97.8        
C           27.79       16.54       101.59      
C           27.34       15.68       102.64      
C           26.89       16.88       100.71      
N           28.12       15.18       103.58      
N           25.82       14.27       103.75      
S           27.24       14.14       104.5       
H           24.77       16.81       100.17      
H           27.18       17.59       99.94       
C           25.51       16.4        100.83      
C           25.97       15.14       102.76      
C           25.11       15.39       101.67      
C           41.25       20.98       94.22       
C           40.38       22.0        94.54       
S           40.78       19.51       94.97       
C           35.87       20.88       98.56       
C           36.85       19.82       98.46       
C           36.9        18.67       99.23       
C           35.65       18.3        99.78       
C           34.59       19.28       99.89       
C           34.75       20.58       99.32       
C           35.13       16.87       100.16      
C           33.71       17.22       100.55      
C           33.49       18.59       100.42      
C           36.22       22.12       97.72       
C           37.53       21.64       97.15       
C           37.84       20.34       97.55       
C           32.76       16.37       101.08      
C           31.45       16.91       101.24      
C           31.24       18.3        101.05      
C           32.22       19.17       100.66      
C           38.34       22.31       96.17       
C           39.37       21.61       95.54       
C           39.59       20.29       95.97       
C           38.92       19.71       97.02       
C           35.29       15.95       98.9        
C           35.88       16.29       101.42      
C           35.19       22.25       96.53       
C           36.5        23.46       98.46       
H           33.93       21.26       99.36       
H           37.81       18.05       99.25       
H           38.11       23.28       95.73       
H           39.11       18.69       97.3        
H           33.09       15.37       101.26      
H           32.09       20.21       100.59      
H           35.59       14.94       99.09       
H           35.97       16.28       98.21       
H           34.3329     15.85429    98.38727    
H           35.71       16.95       102.28      
H           35.33       15.42       101.74      
H           36.96355    16.20273    101.34001   
H           36.5        24.27       97.75       
H           37.46       23.46       98.96       
H           35.73876    23.7067     99.2001     
H           34.16       22.46       96.86       
H           35.41       23.16       95.99       
H           35.1612     21.40764    95.83884    
H           30.2        15.02       101.43      
H           40.46       23.01       94.12       
S           29.52       18.59       101.16      
C           30.28       16.13       101.45      
C           29.17       16.92       101.49      
C           44.57       20.8        91.32       
C           44.42       21.89       92.26       
C           43.64       19.84       91.5        
N           45.2        23.01       92.26       
N           43.48       23.09       94.06       
S           44.72       24.05       93.45       
H           41.82       19.11       92.31       
H           43.65       19.0        90.85       
C           42.53       19.94       92.41       
C           43.44       21.94       93.35       
C           42.38       20.95       93.35       
C           56.82       16.36       80.97       
C           56.0        15.47       81.58       
S           56.35       18.01       81.41       
C           51.87       17.05       85.8        
C           52.58       18.12       85.25       
C           52.24       19.47       85.51       
C           51.2        19.73       86.39       
C           50.45       18.65       86.91       
C           50.76       17.27       86.66       
C           50.67       21.11       86.72       
C           49.44       20.77       87.53       
C           49.35       19.35       87.63       
C           52.23       15.68       85.12       
C           53.38       16.12       84.18       
C           53.53       17.57       84.22       
C           48.53       21.54       88.23       
C           47.59       20.89       89.05       
C           47.4        19.51       88.98       
C           48.3        18.74       88.29       
C           54.13       15.38       83.31       
C           55.08       16.05       82.51       
C           55.18       17.46       82.52       
C           54.43       18.23       83.35       
C           51.76       21.84       87.59       
C           50.2        21.87       85.45       
C           52.65       14.63       86.14       
C           51.0        15.14       84.31       
H           50.21       16.4        87.09       
H           52.89       20.27       85.25       
H           54.04       14.33       83.23       
H           54.45       19.26       83.3        
H           48.68       22.59       88.35       
H           48.13       17.69       88.28       
H           52.59       22.19       86.99       
H           51.44       22.76       88.0        
H           52.13464    21.21796    88.4029     
H           49.67       21.1        84.91       
H           49.43       22.61       85.62       
H           50.94627    22.36295    84.82696    
H           50.47       14.46       85.07       
H           50.23       15.87       84.15       
H           51.13278    14.48307    83.4504     
H           51.88       14.45       86.8        
H           52.85       13.71       85.54       
H           53.5107     14.9003     86.75174    
H           46.63       22.49       90.19       
H           56.1        14.43       81.37       
S           46.05       18.99       89.92       
C           46.68       21.45       89.98       
C           45.66       20.64       90.38       
C           59.73       15.75       77.66       
C           59.82       16.81       78.54       
C           58.67       15.05       77.97       
N           60.81       17.7        78.57       
N           59.14       18.22       80.34       
S           60.47       18.84       79.72       
H           56.89       14.49       79.04       
H           58.46       14.3        77.25       
C           57.66       15.21       78.98       
C           58.88       17.08       79.62       
C           57.77       16.22       79.89       
C           69.43       10.34       65.46       
C           68.53       9.51        66.12       
S           69.16       12.06       65.77       
C           65.14       11.47       70.64       
C           65.96       12.49       70.04       
C           65.82       13.82       70.26       
C           64.86       14.16       71.25       
C           64.13       13.15       71.89       
C           64.2        11.79       71.57       
C           64.36       15.59       71.61       
C           63.65       15.25       72.94       
C           63.3        13.86       72.91       
C           65.45       10.11       70.1        
C           66.49       10.48       69.02       
C           66.72       11.91       69.03       
C           63.08       16.15       73.82       
C           62.09       15.7        74.64       
C           61.71       14.33       74.61       
C           62.32       13.42       73.78       
C           67.1        9.69        68.09       
C           67.88       10.24       67.11       
C           68.07       11.66       67.12       
C           67.45       12.49       68.06       
C           65.57       16.58       71.78       
C           63.27       16.19       70.64       
C           65.96       9.26        71.26       
C           64.16       9.55        69.42       
H           63.46       11.14       71.9        
H           66.43       14.54       69.72       
H           66.94       8.65        68.03       
H           67.68       13.61       67.95       
H           63.5        17.2        73.87       
H           62.05       12.42       73.9        
H           66.01       16.53       70.85       
H           65.35       17.63       72.18       
H           66.3186     16.21682    72.48413    
H           62.26       15.69       70.88       
H           63.33       17.26       70.81       
H           63.55429    16.16157    69.58811    
H           63.36       9.56        70.18       
H           63.92       10.25       68.6        
H           64.25865    8.60577     68.88447    
H           65.12       8.53        71.35       
H           65.99       9.7         72.23       
H           66.97276    8.87277     71.1483     
H           61.62       17.39       75.99       
H           68.49       8.46        65.93       
S           60.48       14.02       75.79       
C           61.39       16.39       75.74       
C           60.5        15.62       76.47       
C           72.61       9.56        62.42       
C           71.7        8.54        62.9        
C           72.3        10.81       62.98       
N           71.77       7.24        62.56       
N           69.91       7.76        64.09       
S           70.61       6.46        63.36       
H           71.16       12.08       64.42       
H           72.99       11.63       62.82       
C           71.26       11.08       63.95       
C           70.63       8.84        63.83       
C           70.42       10.12       64.39       
C           85.18       9.61        51.68       
C           84.17       10.52       51.58       
S           84.53       8.18        52.46       
C           79.25       10.32       55.36       
C           80.06       9.21        55.33       
C           79.91       8.14        56.17       
C           78.83       8.3         57.1        
C           78.09       9.49        57.16       
C           78.2        10.52       56.27       
C           78.76       7.5         58.45       
C           77.52       8.17        59.06       
C           77.18       9.38        58.34       
C           80.02       11.44       54.69       
C           81.04       10.7        53.79       
C           81.17       9.41        54.4        
C           76.81       7.88        60.21       
C           75.74       8.65        60.59       
C           75.47       9.83        59.86       
C           76.23       10.29       58.77       
C           81.93       11.12       52.85       
C           83.07       10.31       52.47       
C           83.15       9.02        53.14       
C           82.25       8.63        54.05       
C           78.49       6.02        58.08       
C           79.97       7.6         59.42       
C           79.06       12.3        53.81       
C           80.82       12.27       55.71       
H           77.5        11.39       56.26       
H           80.59       7.33        56.18       
H           81.84       12.04       52.32       
H           82.35       7.67        54.52       
H           77.12       7.13        60.9        
H           75.95       11.19       58.21       
H           79.29       5.62        57.38       
H           78.71       5.4         58.94       
H           77.47197    5.85771     57.7259     
H           80.0        8.59        59.74       
H           79.89       6.96        60.34       
H           80.96469    7.50561     58.98437    
H           80.24       13.03       56.23       
H           81.67       12.75       55.32       
H           81.18091    11.68972    56.55919    
H           78.39       12.77       54.47       
H           79.66       13.01       53.22       
H           78.52041    11.6553     53.11624    
H           74.74       7.47        62.23       
H           84.31       11.45       51.01       
S           74.05       10.66       60.41       
C           74.73       8.36        61.59       
C           73.78       9.4         61.63       
C           88.83       8.94        49.33       
C           87.9        9.94        48.91       
C           88.53       8.34        50.52       
N           88.03       10.74       47.8        
N           86.07       11.28       49.27       
S           86.79       11.71       47.82       
H           87.11       7.76        51.95       
H           89.24       7.64        50.94       
C           87.31       8.51        51.21       
C           86.79       10.3        49.79       
C           86.39       9.5         50.89       
C           94.84       -3.23       40.32       
C           95.59       -2.94       41.39       
S           94.12       -1.76       39.7        
C           94.09       2.05        44.79       
C           93.84       2.12        43.4        
C           93.1        3.24        42.85       
C           92.67       4.18        43.7        
C           92.99       4.14        45.06       
C           93.7        3.03        45.65       
C           91.89       5.38        43.34       
C           91.72       6.02        44.78       
C           92.39       5.25        45.77       
C           94.71       0.63        45.04       
C           94.94       0.06        43.63       
C           94.26       0.91        42.77       
C           90.96       7.11        45.06       
C           90.78       7.5         46.42       
C           91.43       6.72        47.41       
C           92.2        5.58        47.08       
C           95.5        -1.09       43.24       
C           95.3        -1.66       41.97       
C           94.48       -0.88       41.16       
C           94.0        0.41        41.5        
C           92.67       6.39        42.46       
C           90.51       5.06        42.68       
C           96.18       0.83        45.49       
C           93.77       -0.17       46.0        
H           93.77       2.77        46.73       
H           92.65       3.22        41.85       
H           95.95       -1.7        44.04       
H           93.33       0.9         40.79       
H           90.44       7.67        44.24       
H           92.52       4.9         47.92       
H           93.06       5.79        41.68       
H           91.97       7.11        42.02       
H           93.42266    6.93674     43.02805    
H           90.61       4.69        41.67       
H           89.97       5.9         42.59       
H           89.90168    4.34174     43.22969    
H           93.77       0.29        47.01       
H           92.79       -0.22       45.55       
H           94.14333    -1.18434    46.14088    
H           96.73       -0.11       45.37       
H           96.19       0.92        46.56       
H           96.70636    1.6441      44.99171    
H           89.1        8.87        46.38       
H           96.16       -3.71       41.86       
S           90.89       7.26        49.01       
C           89.84       8.36        47.01       
C           89.73       8.33        48.36       
C           94.35       -6.9        37.9        
C           95.7        -6.52       38.36       
C           93.34       -6.0        38.23       
N           96.81       -7.17       37.96       
N           97.15       -5.22       39.49       
S           98.05       -6.25       38.55       
H           92.72       -4.16       39.23       
H           92.3        -6.19       37.94       
C           93.57       -4.82       39.07       
C           95.84       -5.43       39.3        
C           94.79       -4.5        39.56       
C           89.17       -21.12      31.1        
C           88.43       -20.29      31.89       
S           90.43       -20.15      30.34       
C           89.95       -14.69      33.74       
C           90.72       -15.19      32.66       
C           91.83       -14.48      32.25       
C           92.25       -13.33      32.91       
C           91.51       -12.88      34.02       
C           90.3        -13.52      34.35       
C           93.55       -12.54      32.69       
C           93.45       -11.54      33.92       
C           92.23       -11.78      34.67       
C           88.92       -15.71      34.15       
C           89.25       -16.85      33.25       
C           90.24       -16.55      32.27       
C           94.31       -10.54      34.29       
C           93.87       -9.69       35.41       
C           92.72       -10.04      36.18       
C           91.9        -11.04      35.74       
C           88.57       -18.06      33.18       
C           88.96       -19.0       32.15       
C           90.04       -18.68      31.21       
C           90.76       -17.43      31.29       
C           94.92       -13.29      32.78       
C           93.45       -11.68      31.41       
C           89.2        -16.37      35.57       
C           87.42       -15.25      34.01       
H           89.76       -13.23      35.23       
H           92.48       -14.83      31.56       
H           87.76       -18.38      33.87       
H           91.68       -17.33      30.64       
H           95.18       -10.18      33.69       
H           90.9        -11.19      36.23       
H           95.73       -12.61      32.49       
H           94.84       -13.93      31.89       
H           95.027      -13.76079   33.75725    
H           93.64       -12.29      30.53       
H           94.11       -10.8       31.47       
H           92.45976    -11.26976   31.21195    
H           86.71       -16.04      33.99       
H           87.44       -14.69      33.08       
H           87.04762    -14.63873   34.83206    
H           88.42       -17.08      35.86       
H           89.35       -15.55      36.22       
H           90.19457    -16.80977   35.64442    
H           95.4        -8.15       35.48       
H           87.61       -20.67      32.46       
S           92.54       -8.9        37.54       
C           94.64       -8.67       36.05       
C           94.07       -8.07       37.14       
C           88.06       -25.37      30.23       
C           89.32       -24.82      29.75       
C           87.27       -24.4       30.88       
N           90.23       -25.52      29.08       
N           90.9        -23.17      29.48       
S           91.47       -24.52      28.81       
H           86.89       -22.41      31.55       
H           86.4        -24.71      31.35       
C           87.68       -23.1       31.14       
C           89.66       -23.44      29.97       
C           88.82       -22.55      30.77       
C           82.1        -40.84      28.79       
C           81.37       -39.77      29.31       
S           83.76       -40.44      28.64       
C           83.9        -34.24      29.86       
C           84.84       -35.27      29.7        
C           86.23       -34.97      29.63       
C           86.53       -33.62      29.54       
C           85.54       -32.65      29.75       
C           84.23       -32.92      29.92       
C           87.92       -32.97      29.36       
C           87.52       -31.54      29.56       
C           86.14       -31.34      29.66       
C           82.45       -34.76      29.95       
C           82.66       -36.26      29.91       
C           84.05       -36.56      29.69       
C           88.39       -30.44      29.46       
C           87.89       -29.15      29.72       
C           86.5        -29.04      29.79       
C           85.6        -30.06      29.8        
C           81.71       -37.28      29.76       
C           82.16       -38.57      29.46       
C           83.53       -38.78      29.17       
C           84.5        -37.83      29.34       
C           88.86       -33.46      30.48       
C           88.46       -33.3       27.94       
C           81.77       -34.24      31.26       
C           81.65       -34.2       28.7        
H           83.46       -32.13      30.03       
H           86.99       -35.75      29.75       
H           80.66       -37.18      29.97       
H           85.59       -38.01      29.1        
H           89.47       -30.63      29.33       
H           84.53       -29.89      30.02       
H           88.82       -34.56      30.57       
H           89.86       -33.24      30.25       
H           88.56006    -33.06241   31.44957    
H           87.65       -33.18      27.19       
H           89.18       -32.54      27.64       
H           88.8468     -34.29983   27.74295    
H           81.28       -33.2       28.93       
H           80.86       -34.91      28.39       
H           82.28785    -34.16495   27.81682    
H           81.78       -33.16      31.14       
H           82.34       -34.42      32.21       
H           80.80894    -34.73137   31.41175    
H           89.6        -27.79      29.69       
H           80.34       -39.81      29.46       
S           86.11       -27.34      30.15       
C           88.51       -27.86      29.82       
C           87.73       -26.77      30.07       
C           80.91       -44.94      27.61       
C           80.25       -44.37      28.75       
C           81.89       -44.15      27.11       
N           79.29       -44.91      29.57       
N           79.62       -42.54      30.09       
S           78.63       -43.81      30.56       
H           82.99       -42.25      26.96       
H           82.44       -44.56      26.26       
C           82.25       -42.8       27.58       
C           80.55       -43.01      29.16       
C           81.7        -42.27      28.66       
C           79.33       -60.59      22.25       
C           78.36       -59.99      23.04       
S           80.58       -59.46      21.83       
C           78.65       -54.22      25.01       
C           79.65       -54.58      24.05       
C           80.66       -53.75      23.59       
C           80.67       -52.48      24.01       
C           79.77       -52.05      25.06       
C           78.73       -52.88      25.55       
C           81.78       -51.44      23.71       
C           81.24       -50.29      24.58       
C           80.1        -50.69      25.32       
C           77.61       -55.35      25.17       
C           78.42       -56.42      24.37       
C           79.51       -55.92      23.64       
C           81.71       -49.04      24.74       
C           81.06       -48.18      25.59       
C           80.04       -48.68      26.52       
C           79.56       -49.93      26.43       
C           78.04       -57.75      24.22       
C           78.74       -58.62      23.37       
C           79.87       -58.15      22.74       
C           80.29       -56.78      22.82       
C           83.08       -52.04      24.31       
C           81.92       -51.25      22.21       
C           77.45       -55.76      26.67       
C           76.21       -55.1       24.5        
H           78.13       -52.63      26.44       
H           81.5        -54.13      22.99       
H           77.27       -58.18      24.83       
H           81.24       -56.4       22.36       
H           82.52       -48.67      24.16       
H           78.76       -50.29      27.11       
H           83.3        -53.03      23.99       
H           82.82       -52.1       25.32       
H           83.96607    -51.48709   23.9981     
H           82.49       -52.03      21.68       
H           82.57       -50.39      22.05       
H           80.9263     -51.10169   21.78731    
H           75.53       -54.6       25.19       
H           75.82       -56.04      24.26       
H           76.26012    -54.62743   23.51905    
H           77.01       -55.05      27.36       
H           76.88       -56.7       26.65       
H           78.35213    -56.11083   27.17118    
H           82.12       -46.29      25.35       
H           77.53       -60.58      23.53       
S           79.58       -47.46      27.67       
C           81.29       -46.79      25.82       
C           80.68       -46.29      26.96       
C           80.0        -64.84      21.06       
C           78.94       -64.49      21.94       
C           80.83       -63.79      20.66       
N           78.11       -65.32      22.49       
N           77.61       -63.01      23.09       
S           77.04       -64.48      23.41       
H           81.29       -61.61      20.74       
H           81.74       -63.95      20.1        
C           80.63       -62.4       21.06       
C           78.68       -63.11      22.22       
C           79.52       -61.98      21.82       
C           78.0        -79.47      13.76       
C           78.37       -78.39      13.06       
S           77.84       -79.16      15.53       
C           80.06       -73.16      15.76       
C           79.74       -74.22      16.61       
C           79.76       -74.08      18.0        
C           80.03       -72.84      18.47       
C           80.4        -71.7       17.63       
C           80.37       -71.92      16.26       
C           79.49       -72.29      19.81       
C           79.92       -70.86      19.72       
C           80.42       -70.5       18.47       
C           79.65       -73.49      14.36       
C           79.44       -75.02      14.47       
C           79.36       -75.36      15.79       
C           79.72       -69.94      20.64       
C           79.96       -68.59      20.32       
C           80.46       -68.26      19.11       
C           80.82       -69.21      18.13       
C           79.09       -75.94      13.53       
C           78.69       -77.27      13.89       
C           78.58       -77.56      15.25       
C           78.93       -76.59      16.24       
C           77.93       -72.57      19.7        
C           80.1        -72.96      21.09       
C           78.35       -72.77      13.91       
C           80.88       -73.14      13.44       
H           80.59       -71.04      15.68       
H           79.41       -74.89      18.62       
H           79.38       -75.72      12.48       
H           78.65       -76.73      17.29       
H           79.21       -70.27      21.55       
H           81.14       -68.96      17.1        
H           77.85       -73.6       19.67       
H           77.48       -72.3       18.75       
H           77.38202    -72.07896   20.50417    
H           79.76       -74.01      21.04       
H           79.67       -72.51      21.92       
H           81.18862    -72.91786   21.05488    
H           81.3        -72.18      13.72       
H           81.67       -73.9       13.73       
H           80.72727    -73.22331   12.36397    
H           78.24       -72.46      12.9        
H           78.26       -71.78      14.34       
H           77.41153    -73.27147   14.14641    
H           79.35       -67.38      22.07       
H           78.32       -78.36      11.95       
S           80.83       -66.52      18.9        
C           79.79       -67.4       21.06       
C           80.3        -66.22      20.52       
C           77.67       -83.49      11.98       
C           76.91       -82.43      11.38       
C           78.46       -83.13      13.07       
N           76.19       -82.39      10.2        
N           76.3        -80.23      11.25       
S           75.55       -80.88      9.91        
H           78.93       -81.73      14.58       
H           79.07       -83.91      13.58       
C           78.37       -81.83      13.66       
C           77.0        -81.11      11.96       
C           77.69       -80.8       13.18       
H           11.11       5.44        97.6        
H           77.59       -84.55      11.69       
