612

C           82.41       74.28       48.56       
C           83.29       73.77       47.7        
S           83.36       75.16       49.78       
C           89.19       73.11       48.88       
C           88.45       73.89       49.73       
C           89.11       74.6        50.81       
C           90.53       74.54       50.93       
C           91.26       73.8        49.95       
C           90.61       73.0        49.05       
C           91.48       75.39       51.81       
C           92.79       75.11       51.1        
C           92.65       74.06       50.14       
C           88.29       72.56       47.78       
C           86.95       73.35       48.09       
C           87.07       73.95       49.32       
C           93.97       75.66       51.37       
C           95.1        75.21       50.69       
C           95.01       74.23       49.73       
C           93.73       73.59       49.47       
C           85.78       73.29       47.41       
C           84.68       73.84       48.05       
C           84.83       74.48       49.21       
C           86.04       74.65       49.83       
C           91.24       76.9        51.78       
C           91.62       74.93       53.28       
C           88.81       73.04       46.44       
C           88.03       71.02       47.82       
H           91.15       72.34       48.44       
H           88.56       75.27       51.49       
H           85.79       72.76       46.47       
H           86.12       75.22       50.75       
H           94.01       76.36       52.17       
H           93.69       72.77       48.74       
H           91.81       77.36       52.62       
H           90.18       77.15       51.89       
H           91.41191    77.38708    50.82016    
H           92.01       73.97       53.31       
H           92.4        75.43       53.83       
H           90.69676    75.02526    53.85153    
H           87.77       70.56       46.87       
H           87.21       70.88       48.51       
H           88.85124    70.4653     48.27384    
H           89.68       72.45       46.21       
H           88.18       72.71       45.58       
H           89.05892    74.09967    46.3831     
H           96.85       76.19       51.7        
H           82.89       73.15       46.91       
S           96.56       73.88       49.0        
C           96.49       75.61       50.88       
C           97.38       75.02       50.04       
C           77.94       74.6        48.92       
C           78.55       73.84       47.91       
C           78.85       75.28       49.7        
N           77.94       73.07       46.89       
N           80.43       72.92       46.79       
S           79.09       72.36       45.98       
H           80.92       75.84       50.27       
H           78.5        75.83       50.59       
C           80.35       75.19       49.57       
C           80.03       73.76       47.75       
C           80.93       74.37       48.62       
C           61.15       75.43       49.19       
C           61.94       76.5        49.09       
S           62.08       73.97       49.6        
C           68.06       76.15       49.36       
C           67.36       74.92       49.31       
C           68.06       73.73       49.42       
C           69.46       73.85       49.47       
C           70.16       75.07       49.56       
C           69.44       76.24       49.48       
C           70.46       72.64       49.51       
C           71.82       73.38       49.46       
C           71.63       74.83       49.41       
C           67.05       77.33       49.26       
C           65.73       76.59       49.13       
C           65.94       75.17       49.33       
C           73.14       72.89       49.35       
C           74.21       73.83       49.34       
C           73.99       75.26       49.27       
C           72.64       75.71       49.21       
C           64.41       77.13       49.17       
C           63.36       76.2        49.21       
C           63.57       74.81       49.35       
C           64.87       74.28       49.52       
C           70.37       71.87       50.81       
C           70.25       71.64       48.36       
C           67.21       78.13       50.58       
C           67.18       78.24       48.08       
H           69.87       77.26       49.32       
H           67.57       72.71       49.27       
H           64.21       78.2        49.0        
H           65.06       73.23       49.85       
H           73.37       71.85       49.22       
H           72.38       76.77       49.11       
H           69.29       71.59       50.91       
H           70.99       70.93       50.79       
H           70.58821    72.45424    51.70395    
H           69.29       71.21       48.31       
H           71.03       70.82       48.48       
H           70.43638    72.12028    47.39943    
H           67.93       78.9        48.4        
H           66.27       78.81       48.02       
H           67.31963    77.7932     47.09564    
H           68.05       78.77       50.47       
H           66.27       78.66       50.79       
H           67.18039    77.47861    51.45345    
H           76.03       72.48       49.21       
H           61.69       77.55       48.94       
S           75.53       76.07       49.09       
C           75.63       73.52       49.23       
C           76.46       74.57       49.14       
C           56.95       74.37       48.18       
C           57.41       75.73       47.87       
C           57.83       73.55       48.74       
N           56.61       76.76       47.63       
N           59.02       77.37       47.93       
S           57.6        78.09       47.44       
H           59.72       73.09       49.54       
H           57.58       72.53       48.87       
C           59.18       73.91       49.11       
C           58.75       76.12       48.23       
C           59.68       75.19       48.89       
C           43.32       69.08       40.79       
C           44.33       69.67       40.12       
S           43.95       68.36       42.26       
C           49.75       70.86       42.61       
C           48.95       69.99       43.4        
C           49.37       69.56       44.65       
C           50.58       70.12       45.22       
C           51.32       70.98       44.49       
C           51.03       71.25       43.17       
C           50.94       70.19       46.66       
C           52.06       71.17       46.67       
C           52.25       71.64       45.38       
C           49.16       71.18       41.23       
C           47.8        70.42       41.37       
C           47.78       69.76       42.6        
C           52.78       71.64       47.69       
C           53.79       72.59       47.4        
C           53.93       73.08       46.06       
C           53.21       72.55       45.03       
C           46.81       70.39       40.44       
C           45.63       69.7        40.82       
C           45.56       68.97       42.02       
C           46.63       68.95       42.93       
C           49.8        70.77       47.51       
C           51.37       68.78       47.12       
C           48.9        72.71       41.05       
C           50.09       70.51       40.16       
H           51.67       71.98       42.62       
H           48.66       68.99       45.26       
H           46.93       71.03       39.53       
H           46.58       68.37       43.89       
H           52.67       71.2        48.67       
H           53.42       72.79       43.95       
H           50.01       70.79       48.58       
H           48.95       70.07       47.5        
H           49.54607    71.77848    47.18351    
H           50.48       68.15       47.02       
H           51.65       68.77       48.2        
H           52.18947    68.41339    46.5018     
H           49.45       70.34       39.22       
H           50.44       69.55       40.52       
H           50.91775    71.13258    39.82041    
H           49.89       73.26       40.9        
H           48.47       73.01       40.08       
H           48.36042    73.18306    41.87046    
H           55.1        72.77       49.21       
H           44.15       70.23       39.23       
S           55.34       74.17       45.97       
C           54.87       73.14       48.24       
C           55.63       73.99       47.67       
C           38.99       70.03       41.09       
C           39.49       68.72       41.52       
C           39.91       70.77       40.44       
N           38.77       67.78       42.16       
N           41.19       67.15       41.86       
S           39.82       66.54       42.45       
H           41.99       71.17       39.87       
H           39.66       71.68       39.95       
C           41.3        70.45       40.26       
C           40.9        68.38       41.35       
C           41.84       69.23       40.68       
C           27.94       80.31       47.42       
C           28.23       79.15       48.14       
S           28.93       80.52       46.04       
C           31.96       74.99       45.73       
C           31.99       76.27       45.07       
C           32.54       76.4        43.8        
C           33.27       75.37       43.32       
C           33.41       74.14       44.02       
C           32.71       73.91       45.2        
C           33.97       75.37       41.97       
C           34.54       73.96       41.99       
C           34.28       73.32       43.23       
C           31.08       74.92       46.98       
C           30.6        76.42       46.96       
C           31.04       77.12       45.77       
C           35.51       73.46       41.13       
C           36.05       72.26       41.42       
C           35.76       71.61       42.61       
C           34.84       72.11       43.53       
C           29.66       77.0        47.81       
C           29.23       78.33       47.49       
C           29.7        78.93       46.29       
C           30.66       78.37       45.43       
C           33.06       75.61       40.77       
C           35.13       76.42       41.99       
C           29.85       73.95       46.8        
C           31.91       74.59       48.29       
H           32.74       72.96       45.74       
H           32.4        77.36       43.22       
H           29.1        76.38       48.49       
H           31.03       78.84       44.49       
H           35.84       73.93       40.2        
H           34.65       71.67       44.53       
H           32.47       76.56       40.77       
H           33.72       75.73       39.94       
H           32.3963     74.76466    40.58836    
H           35.66       76.31       42.96       
H           35.84       76.1        41.24       
H           34.85762    77.47459    41.9481     
H           32.22       73.59       48.22       
H           32.74       75.19       48.14       
H           31.47247    74.84978    49.25394    
H           30.21       72.93       46.86       
H           29.08       74.09       47.64       
H           29.38365    74.08116    45.82357    
H           37.57       72.08       39.85       
H           27.67       78.88       49.07       
S           36.83       70.2        42.8        
C           37.15       71.65       40.72       
C           37.68       70.56       41.3        
C           24.66       83.19       48.57       
C           25.33       83.36       47.3        
C           25.2        82.24       49.37       
N           25.0        84.21       46.35       
N           26.86       82.7        45.7        
S           25.99       83.93       45.07       
H           26.51       80.6        49.72       
H           24.69       82.08       50.27       
C           26.2        81.32       48.95       
C           26.41       82.46       46.93       
C           26.82       81.31       47.7        
C           13.78       94.45       53.6        
C           14.8        94.81       52.79       
S           14.17       93.12       54.62       
C           19.19       90.87       51.64       
C           18.38       90.48       52.65       
C           18.54       89.18       53.23       
C           19.27       88.2        52.54       
C           20.05       88.63       51.46       
C           20.08       89.93       51.06       
C           19.37       86.65       52.62       
C           20.5        86.36       51.6        
C           20.88       87.55       50.97       
C           18.96       92.35       51.23       
C           17.77       92.66       52.08       
C           17.44       91.61       52.93       
C           21.04       85.13       51.39       
C           22.09       85.09       50.52       
C           22.55       86.3        49.88       
C           21.94       87.53       50.08       
C           17.1        93.82       52.01       
C           15.92       93.84       52.76       
C           15.62       92.79       53.74       
C           16.45       91.67       53.83       
C           19.75       86.0        53.99       
C           18.08       85.95       52.14       
C           20.22       93.19       51.53       
C           18.66       92.45       49.75       
H           21.01       90.17       50.43       
H           17.86       88.98       54.06       
H           17.31       94.55       51.2        
H           16.25       90.8        54.46       
H           20.56       84.28       51.83       
H           22.2        88.41       49.46       
H           19.03       86.42       54.74       
H           19.68       84.97       53.9        
H           20.76105    86.17926    54.3557     
H           17.93       86.01       51.12       
H           18.27       84.85       52.29       
H           17.20615    86.22707    52.72967    
H           19.53       92.41       49.08       
H           18.19       93.46       49.59       
H           17.98914    91.68734    49.35454    
H           21.07       92.75       50.96       
H           20.25       94.18       51.17       
H           20.54088    93.22565    52.57109    
H           22.71       82.9        50.48       
H           14.67       95.66       52.09       
S           23.78       85.85       48.69       
C           22.86       83.97       50.09       
C           23.7        84.13       49.04       
C           9.66        96.0        54.46       
C           10.65       96.85       53.97       
C           10.17       94.72       54.67       
N           10.38       98.15       53.62       
N           12.74       97.52       53.36       
S           11.79       98.79       53.16       
H           11.69       93.24       54.77       
H           9.62        93.96       55.14       
C           11.55       94.3        54.49       
C           12.03       96.41       53.66       
C           12.54       95.09       53.99       
C           -6.7        95.18       53.66       
C           -5.87       94.18       54.18       
S           -5.88       96.75       53.75       
C           -0.09       94.97       55.71       
C           -0.76       96.15       55.33       
C           -0.11       97.43       55.32       
C           1.32        97.38       55.21       
C           1.91        96.15       55.46       
C           1.25        95.01       55.93       
C           2.35        98.43       54.78       
C           3.6         97.51       54.62       
C           3.4         96.32       55.27       
C           -1.09       93.79       55.91       
C           -2.32       94.47       55.43       
C           -2.2        95.88       55.15       
C           4.83        97.92       54.2        
C           5.98        97.05       54.44       
C           5.72        95.83       55.04       
C           4.44        95.43       55.39       
C           -3.51       93.79       55.09       
C           -4.6        94.58       54.65       
C           -4.48       96.01       54.49       
C           -3.27       96.66       54.67       
C           1.88        99.15       53.45       
C           2.69        99.53       55.87       
C           -0.73       92.56       55.03       
C           -1.26       93.3        57.37       
H           1.81        94.19       56.42       
H           -0.65       98.3        54.97       
H           -3.5        92.74       55.02       
H           -3.09       97.67       54.32       
H           4.93        98.87       53.81       
H           4.31        94.47       55.8        
H           1.04        99.85       53.54       
H           2.81        99.69       53.16       
H           1.67301     98.47194    52.62205    
H           3.34        99.03       56.62       
H           3.33        100.29      55.39       
H           1.80374     99.93413    56.35921    
H           -0.36       92.78       57.64       
H           -2.05       92.59       57.42       
H           -1.514      94.09729    58.06851    
H           0.32        92.15       55.16       
H           -1.4        91.71       55.22       
H           -0.73738    92.83303    53.97477    
H           7.79        98.19       53.79       
H           -6.15       93.19       54.27       
S           7.18        94.84       55.09       
C           7.42        97.24       54.23       
C           8.21        96.2        54.58       
C           -10.35      94.58       51.15       
C           -10.02      93.66       52.16       
C           -9.59       95.69       51.2        
N           -10.63      92.44       52.4        
N           -8.72       92.95       54.01       
S           -9.96       91.86       53.77       
H           -7.91       96.88       52.05       
H           -9.78       96.5        50.54       
C           -8.47       95.94       52.13       
C           -8.89       93.94       53.15       
C           -8.0        95.03       53.02       
C           -20.76      91.53       38.55       
C           -20.47      92.82       38.9        
S           -20.02      90.38       39.66       
C           -16.0       94.01       43.02       
C           -16.46      92.66       42.89       
C           -15.9       91.68       43.65       
C           -15.03      92.0        44.67       
C           -14.73      93.34       44.94       
C           -15.08      94.34       44.05       
C           -14.27      91.06       45.62       
C           -13.6       92.04       46.53       
C           -13.89      93.41       46.1        
C           -16.7       94.88       41.96       
C           -17.77      93.94       41.44       
C           -17.48      92.66       41.93       
C           -12.95      91.95       47.71       
C           -12.41      93.05       48.39       
C           -12.61      94.33       47.92       
C           -13.43      94.53       46.79       
C           -18.7       94.11       40.43       
C           -19.46      92.98       39.91       
C           -19.13      91.7        40.44       
C           -18.23      91.52       41.53       
C           -15.33      90.1        46.28       
C           -13.07      90.33       44.94       
C           -17.2       96.15       42.75       
C           -15.8       95.35       40.74       
H           -14.64      95.36       44.18       
H           -16.18      90.68       43.49       
H           -18.86      95.04       39.97       
H           -17.94      90.56       41.87       
H           -12.88      90.98       48.11       
H           -13.49      95.57       46.47       
H           -15.93      89.46       45.6        
H           -14.86      89.3        46.82       
H           -15.96936   90.60287    47.00557    
H           -12.19      90.96       44.82       
H           -12.72      89.56       45.63       
H           -13.30164   89.84501    43.99173    
H           -15.4       96.33       40.81       
H           -16.39      95.28       39.87       
H           -14.95585   94.67329    40.60745    
H           -16.47      96.39       43.52       
H           -17.12      96.97       42.05       
H           -18.21865   96.02527    43.11727    
H           -11.23      92.02       49.93       
H           -21.02      93.63       38.55       
S           -11.89      95.54       49.02       
C           -11.56      93.0        49.55       
C           -11.24      94.27       50.03       
C           -23.99      89.92       36.12       
C           -24.13      91.22       36.7        
C           -22.75      89.34       36.36       
N           -25.25      91.93       36.67       
N           -23.38      92.98       38.06       
S           -24.84      93.33       37.5        
H           -20.75      89.38       37.08       
H           -22.46      88.45       35.78       
C           -21.71      89.88       37.14       
C           -23.13      91.74       37.58       
C           -21.87      91.07       37.83       
C           -35.89      80.77       29.02       
C           -34.63      80.78       28.43       
S           -36.09      82.05       30.27       
C           -30.03      84.22       30.56       
C           -31.31      84.56       30.98       
C           -31.63      85.59       31.9        
C           -30.53      86.22       32.48       
C           -29.17      85.86       32.14       
C           -28.92      84.87       31.15       
C           -30.61      87.59       33.29       
C           -29.14      87.56       33.7        
C           -28.31      86.71       32.93       
C           -30.07      83.11       29.5        
C           -31.6       82.89       29.41       
C           -32.27      83.69       30.34       
C           -28.57      88.39       34.58       
C           -27.14      88.59       34.57       
C           -26.34      87.73       33.83       
C           -26.88      86.73       32.98       
C           -32.39      81.99       28.66       
C           -33.75      81.81       28.95       
C           -34.43      82.56       29.95       
C           -33.63      83.51       30.6        
C           -31.01      88.73       32.26       
C           -31.66      87.55       34.49       
C           -29.4       83.61       28.26       
C           -29.5       81.76       30.11       
H           -27.85      84.6        30.85       
H           -32.67      85.89       32.1        
H           -31.88      81.29       27.94       
H           -34.16      84.14       31.36       
H           -29.16      89.12       35.13       
H           -26.21      85.9        32.54       
H           -31.92      88.43       31.83       
H           -31.16      89.62       32.87       
H           -30.2458    88.96226    31.51828    
H           -32.7       87.4        34.24       
H           -31.61      88.49       34.98       
H           -31.42784   86.77613    35.22166    
H           -29.66      80.87       29.5        
H           -30.07      81.65       31.0        
H           -28.42361   81.69498    30.26893    
H           -28.41      83.81       28.41       
H           -29.44      82.8        27.53       
H           -29.6765    84.61885    27.95361    
H           -26.87      90.11       36.16       
H           -34.29      80.07       27.67       
S           -24.66      88.19       33.97       
C           -26.36      89.45       35.4        
C           -25.04      89.27       35.35       
C           -39.47      78.3        28.13       
C           -38.38      78.41       27.19       
C           -39.2       78.92       29.29       
N           -38.38      77.81       26.01       
N           -36.29      79.2        26.46       
S           -36.99      78.28       25.26       
H           -38.21      80.21       30.59       
H           -39.97      78.7        30.03       
C           -38.08      79.74       29.61       
C           -37.14      79.13       27.49       
C           -37.01      79.87       28.76       
C           -54.61      71.04       26.96       
C           -53.77      70.83       28.03       
S           -53.84      72.1        25.79       
C           -48.42      73.74       28.79       
C           -49.08      74.0        27.61       
C           -48.49      74.86       26.69       
C           -47.24      75.45       26.85       
C           -46.53      75.05       27.95       
C           -47.1       74.27       28.98       
C           -46.53      76.34       25.8        
C           -45.15      76.33       26.47       
C           -45.23      75.66       27.68       
C           -49.14      72.65       29.62       
C           -50.43      72.49       28.7        
C           -50.31      73.28       27.6        
C           -43.96      76.96       26.06       
C           -42.86      76.95       26.95       
C           -42.93      76.28       28.21       
C           -44.14      75.64       28.54       
C           -51.53      71.66       28.93       
C           -52.57      71.63       27.98       
C           -52.45      72.48       26.83       
C           -51.27      73.17       26.6        
C           -46.44      75.6        24.4        
C           -46.95      77.83       25.79       
C           -48.24      71.39       29.61       
C           -49.48      73.12       31.05       
H           -46.54      74.06       29.89       
H           -49.03      75.11       25.84       
H           -51.53      70.91       29.73       
H           -51.19      73.6        25.59       
H           -43.9       77.42       25.11       
H           -44.29      75.16       29.48       
H           -47.51      75.64       24.12       
H           -45.91      76.2        23.66       
H           -46.11951   74.55841    24.37815    
H           -47.07      78.18       26.76       
H           -46.18      78.36       25.28       
H           -47.92524   78.01675    25.34042    
H           -50.04      72.38       31.56       
H           -50.15      73.97       31.0        
H           -48.5784    73.28645    31.63951    
H           -48.71      70.71       30.35       
H           -47.2       71.57       29.96       
H           -48.06512   70.93822    28.63357    
H           -41.49      78.35       26.05       
H           -53.95      70.07       28.81       
S           -41.48      76.62       29.17       
C           -41.63      77.65       26.82       
C           -40.81      77.67       27.91       
C           -58.21      68.86       25.51       
C           -57.29      68.19       26.32       
C           -57.8       70.16       25.21       
N           -57.44      66.95       26.79       
N           -55.28      68.03       27.53       
S           -56.11      66.67       27.74       
H           -56.42      71.81       25.16       
H           -58.38      70.71       24.49       
C           -56.59      70.84       25.56       
C           -56.11      68.91       26.86       
C           -55.76      70.26       26.44       
C           -71.08      63.3        16.58       
C           -70.1       62.47       17.0        
S           -70.92      64.96       17.2        
C           -65.74      64.32       20.95       
C           -66.65      65.31       20.5        
C           -66.51      66.62       20.92       
C           -65.38      67.0        21.6        
C           -64.43      66.01       22.06       
C           -64.66      64.68       21.76       
C           -64.97      68.43       22.14       
C           -63.59      68.02       22.72       
C           -63.37      66.65       22.78       
C           -66.15      62.94       20.45       
C           -67.29      63.32       19.51       
C           -67.65      64.67       19.56       
C           -62.63      68.89       23.22       
C           -61.5       68.44       23.76       
C           -61.37      67.01       23.89       
C           -62.3       66.11       23.34       
C           -68.1       62.48       18.7        
C           -69.22      63.07       17.95       
C           -69.51      64.45       18.17       
C           -68.77      65.24       18.98       
C           -65.0       69.37       20.96       
C           -66.02      68.94       23.19       
C           -64.95      62.41       19.65       
C           -66.48      62.05       21.68       
H           -63.94      63.95       22.11       
H           -67.24      67.3        20.57       
H           -67.89      61.4        18.46       
H           -69.04      66.31       19.25       
H           -62.83      69.98       23.12       
H           -62.21      65.05       23.35       
H           -64.99      70.43       21.22       
H           -65.91      69.28       20.36       
H           -64.17345   69.11349    20.29734    
H           -66.99      69.12       22.78       
H           -65.68      69.91       23.63       
H           -66.18752   68.26292    24.02762    
H           -65.56      61.91       22.28       
H           -67.22      62.45       22.35       
H           -66.79539   61.03215    21.45063    
H           -65.17      61.42       19.25       
H           -64.11      62.16       20.33       
H           -64.61364   63.11262    18.88758    
H           -60.4       70.22       24.35       
H           -69.98      61.44       16.58       
S           -59.85      66.58       24.63       
C           -60.41      69.16       24.33       
C           -59.48      68.32       24.91       
C           -74.78      62.76       14.21       
C           -74.34      61.71       15.12       
C           -73.98      63.88       14.19       
N           -75.07      60.59       15.46       
N           -72.84      60.71       16.68       
S           -74.01      59.6        16.27       
H           -72.32      64.98       15.11       
H           -74.26      64.65       13.52       
C           -72.79      64.02       15.04       
C           -73.07      61.81       15.9        
C           -72.24      63.0        15.78       
H           98.38       75.28       49.96       
H           -75.6       62.47       13.54       
