612

C           34.99       40.03       13.27       
C           34.28       41.08       13.78       
S           34.95       38.55       14.31       
C           31.31       40.87       18.94       
C           32.17       39.79       18.78       
C           32.32       38.81       19.74       
C           31.68       38.96       20.98       
C           30.7        39.98       21.07       
C           30.49       40.94       20.0        
C           31.97       38.34       22.34       
C           30.78       38.84       23.11       
C           30.18       39.92       22.45       
C           31.53       41.95       17.84       
C           32.41       41.25       16.91       
C           32.8        40.0        17.45       
C           30.59       38.72       24.45       
C           29.55       39.36       25.09       
C           28.93       40.45       24.39       
C           29.24       40.79       23.05       
C           33.02       41.73       15.78       
C           33.75       40.81       15.05       
C           34.15       39.52       15.54       
C           33.7        39.12       16.79       
C           31.79       36.88       22.1        
C           33.33       38.66       23.02       
C           30.15       42.19       17.09       
C           32.03       43.27       18.52       
H           29.78       41.76       20.18       
H           33.06       38.04       19.63       
H           32.69       42.65       15.26       
H           33.92       38.14       17.18       
H           31.1        37.89       24.93       
H           28.71       41.6        22.57       
H           32.49       36.6        21.32       
H           32.19       36.38       22.91       
H           30.75172    36.57505    21.96931    
H           33.35       39.68       23.4        
H           33.34       38.14       23.9        
H           34.20721    38.51965    22.38841    
H           31.34       43.86       19.04       
H           32.57       43.94       17.77       
H           32.8228     43.05441    19.2363     
H           29.37       42.52       17.81       
H           30.36       43.05       16.47       
H           29.83157    41.39393    16.41696    
H           29.27       38.32       27.03       
H           34.2        42.08       13.33       
S           27.76       41.17       25.45       
C           29.02       39.19       26.39       
C           28.11       40.12       26.82       
C           38.23       39.54       10.22       
C           37.6        40.82       10.39       
C           37.69       38.58       10.99       
N           37.94       41.94       9.71        
N           36.13       42.31       11.45       
S           36.96       43.14       10.28       
H           36.34       37.84       12.42       
H           38.1        37.56       10.96       
C           36.59       38.74       11.88       
C           36.46       41.0        11.35       
C           35.98       39.92       12.16       
C           52.43       34.8        3.13        
C           51.24       34.13       3.14        
S           52.23       36.47       3.69        
C           46.03       36.28       5.12        
C           47.05       37.24       5.19        
C           46.9        38.49       5.81        
C           45.66       38.73       6.37        
C           44.67       37.74       6.41        
C           44.86       36.52       5.75        
C           45.19       39.97       7.17        
C           43.89       39.47       7.79        
C           43.54       38.21       7.25        
C           46.52       34.88       4.69        
C           47.89       35.28       4.22        
C           48.23       36.62       4.58        
C           42.95       40.15       8.52        
C           41.65       39.6        8.7         
C           41.37       38.32       8.16        
C           42.27       37.62       7.31        
C           48.79       34.46       3.74        
C           50.12       34.9        3.54        
C           50.43       36.23       3.9         
C           49.54       37.12       4.47        
C           46.15       40.22       8.31        
C           44.86       41.21       6.4         
C           46.53       33.89       5.93        
C           45.71       34.2        3.54        
H           44.02       35.86       5.63        
H           47.73       39.17       5.87        
H           48.49       33.49       3.52        
H           49.88       37.98       5.09        
H           43.15       41.13       8.94        
H           42.11       36.63       6.92        
H           46.94       40.88       8.03        
H           45.77       40.83       9.1         
H           46.61723    39.32323    8.71694     
H           44.3        40.79       5.5         
H           44.12       41.91       6.75        
H           45.73182    41.73597    6.01092     
H           44.9        33.63       4.02        
H           46.3        33.62       2.77        
H           45.1106     34.87884    2.93338     
H           45.55       33.69       6.26        
H           46.91       32.87       5.78        
H           47.13672    34.29204    6.74139     
H           40.69       41.02       10.03       
H           51.16       33.08       2.88        
S           39.72       37.87       8.53        
C           40.58       40.1        9.5         
C           39.51       39.29       9.55        
C           56.36       33.07       1.76        
C           55.21       33.16       0.92        
C           56.16       33.64       3.02        
N           55.24       32.85       -0.34       
N           53.08       33.74       0.34        
S           53.84       33.26       -1.05       
H           54.86       34.52       4.45        
H           56.96       33.73       3.75        
C           54.88       34.11       3.44        
C           53.96       33.66       1.38        
C           53.72       34.22       2.68        
C           69.16       22.77       0.77        
C           68.46       23.13       1.92        
S           68.36       23.4        -0.64       
C           63.85       26.96       1.93        
C           64.52       26.9        0.71        
C           64.19       27.72       -0.41       
C           63.07       28.52       -0.22       
C           62.47       28.57       1.08        
C           62.81       27.78       2.11        
C           62.54       29.61       -1.15       
C           61.46       30.27       -0.21       
C           61.41       29.5        0.99        
C           64.41       25.98       2.95        
C           65.65       25.56       2.19        
C           65.62       25.94       0.79        
C           60.44       31.23       -0.5        
C           59.52       31.53       0.52        
C           59.5        30.77       1.74        
C           60.53       29.84       2.02        
C           66.58       24.64       2.61        
C           67.4        24.03       1.69        
C           67.28       24.35       0.34        
C           66.33       25.31       -0.11       
C           63.66       30.66       -1.42       
C           61.79       29.17       -2.44       
C           64.82       26.73       4.25        
C           63.61       24.64       3.15        
H           62.48       28.02       3.11        
H           64.63       27.59       -1.36       
H           66.67       24.42       3.63        
H           66.27       25.53       -1.15       
H           60.27       31.72       -1.46       
H           60.49       29.15       2.82        
H           64.48       30.09       -1.92       
H           63.24       31.3        -2.15       
H           64.01106    31.26182    -0.58175    
H           60.75       28.9        -2.21       
H           61.63       30.07       -3.08       
H           62.28846    28.42592    -3.06127    
H           64.15       24.08       3.88        
H           63.75       24.18       2.16        
H           62.59265    24.79152    3.51076     
H           63.91       27.06       4.75        
H           65.2        26.03       5.0         
H           65.53899    27.53116    4.07881     
H           58.08       32.87       -0.58       
H           68.61       22.73       2.91        
S           58.2        31.4        2.8         
C           58.37       32.36       0.4         
C           57.61       32.48       1.52        
C           72.38       19.94       -0.21       
C           71.79       19.89       1.11        
C           71.85       20.87       -1.01       
N           72.13       19.02       2.06        
N           70.37       20.6        2.83        
S           71.16       19.24       3.36        
H           70.58       22.47       -1.48       
H           72.25       20.99       -2.02       
C           70.78       21.76       -0.69       
C           70.69       20.76       1.5         
C           70.19       21.79       0.53        
C           84.25       11.64       -7.48       
C           83.46       12.44       -8.17       
S           83.5        11.05       -5.96       
C           78.35       14.58       -5.88       
C           78.92       13.56       -5.1        
C           78.42       13.2        -3.83       
C           77.39       14.03       -3.3        
C           76.82       15.0        -4.1        
C           77.29       15.28       -5.4        
C           76.96       14.09       -1.84       
C           75.98       15.21       -1.89       
C           75.94       15.78       -3.19       
C           79.13       14.89       -7.14       
C           80.13       13.74       -7.06       
C           80.09       13.07       -5.8        
C           75.22       15.76       -0.89       
C           74.54       16.95       -1.13       
C           74.46       17.46       -2.48       
C           75.18       16.82       -3.51       
C           81.24       13.58       -7.9        
C           82.3        12.76       -7.54       
C           82.25       12.17       -6.26       
C           81.14       12.27       -5.4        
C           76.3        12.68       -1.53       
C           78.08       14.58       -0.82       
C           78.23       14.74       -8.4        
C           79.86       16.26       -7.13       
H           76.8        16.08       -5.99       
H           78.97       12.53       -3.2        
H           81.22       13.97       -8.9        
H           81.11       11.87       -4.43       
H           75.16       15.28       0.09        
H           75.18       17.3        -4.46       
H           76.89       11.81       -1.87       
H           76.23       12.61       -0.48       
H           75.33436    12.65074    -2.03477    
H           78.67       15.48       -1.14       
H           77.53       14.81       0.07        
H           78.89562    13.87688    -0.65125    
H           79.42       16.96       -7.82       
H           80.99       16.08       -7.41       
H           79.84562    16.74166    -6.1523     
H           77.31       15.29       -8.2        
H           78.75       15.14       -9.25       
H           77.95252    13.69253    -8.51793    
H           73.7        17.54       0.87        
H           83.79       12.73       -9.13       
S           73.51       18.94       -2.55       
C           73.79       17.79       -0.18       
C           73.27       18.91       -0.8        
C           88.24       10.25       -8.48       
C           87.16       10.16       -9.43       
C           87.88       10.83       -7.27       
N           87.26       9.65        -10.62      
N           84.99       10.4        -10.07      
S           85.78       9.64        -11.26      
H           86.4        11.47       -5.9        
H           88.61       10.95       -6.47       
C           86.52       11.05       -6.9        
C           85.84       10.69       -9.1        
C           85.49       11.05       -7.82       
C           102.76      1.96        -7.55       
C           102.58      3.14        -6.94       
S           101.33      1.52        -8.44       
C           97.4        6.4         -7.28       
C           97.35       5.17        -7.89       
C           96.19       4.67        -8.47       
C           95.03       5.43        -8.48       
C           95.02       6.75        -7.95       
C           96.27       7.29        -7.38       
C           93.68       5.14        -9.2        
C           92.96       6.47        -9.05       
C           93.67       7.34        -8.14       
C           98.78       6.64        -6.55       
C           99.54       5.39        -7.0        
C           98.73       4.57        -7.87       
C           91.73       6.83        -9.51       
C           91.15       8.0         -8.96       
C           91.88       8.91        -8.17       
C           93.16       8.56        -7.73       
C           100.81      4.94        -6.6        
C           101.3       3.76        -7.15       
C           100.46      2.97        -7.98       
C           99.16       3.35        -8.38       
C           93.86       4.89        -10.71      
C           92.71       4.08        -8.58       
C           99.53       7.87        -7.09       
C           98.73       6.76        -4.98       
H           96.27       8.26        -6.93       
H           96.3        3.89        -9.19       
H           101.36      5.5         -5.9        
H           98.52       2.7         -8.86       
H           91.2        6.29        -10.31      
H           93.73       9.21        -7.1        
H           94.24       3.86        -10.88      
H           92.88       4.94        -11.18      
H           94.5429     5.58698     -11.19577   
H           92.37       4.51        -7.65       
H           91.9        3.92        -9.28       
H           93.1582     3.09956     -8.41893    
H           99.47       7.55        -4.79       
H           98.94       5.85        -4.43       
H           97.81344    7.25861     -4.6647     
H           100.56      7.65        -6.82       
H           99.2        8.83        -6.64       
H           99.53696    7.96052     -8.17621    
H           89.12       7.82        -9.83       
H           103.43      3.64        -6.45       
S           90.84       10.28       -7.77       
C           89.79       8.43        -9.2        
C           89.51       9.63        -8.57       
C           106.48      -0.52       -8.02       
C           105.16      -1.07       -8.16       
C           106.44      0.8         -7.75       
N           104.89      -2.32       -8.36       
N           102.78      -1.03       -8.36       
S           103.28      -2.57       -8.49       
H           105.27      2.7         -7.38       
H           107.4       1.37        -7.64       
C           105.25      1.54        -7.56       
C           103.92      -0.32       -8.18       
C           104.0       1.08        -7.82       
C           118.57      -10.1       -13.33      
C           118.67      -8.77       -13.55      
S           117.62      -10.45      -11.93      
C           114.87      -4.8        -10.66      
C           114.97      -6.12       -10.13      
C           114.08      -6.59       -9.09       
C           113.19      -5.6        -8.67       
C           113.2       -4.25       -9.16       
C           113.98      -3.88       -10.2       
C           111.98      -5.78       -7.74       
C           111.23      -4.5        -8.06       
C           112.03      -3.53       -8.67       
C           115.78      -4.7        -11.86      
C           116.58      -6.09       -11.8       
C           115.94      -6.96       -10.88      
C           109.88      -4.32       -7.72       
C           109.36      -3.06       -7.87       
C           110.24      -2.06       -8.53       
C           111.58      -2.29       -8.93       
C           117.51      -6.57       -12.72      
C           117.83      -7.97       -12.65      
C           117.23      -8.77       -11.64      
C           116.29      -8.3        -10.69      
C           111.15      -7.05       -8.09       
C           112.28      -5.75       -6.25       
C           114.96      -4.43       -13.1       
C           116.78      -3.52       -11.75      
H           113.81      -2.93       -10.65      
H           114.14      -7.59       -8.75       
H           117.93      -5.95       -13.52      
H           115.89      -8.91       -9.85       
H           109.26      -5.11       -7.32       
H           112.19      -1.53       -9.47       
H           111.64      -7.99       -7.79       
H           110.35      -7.08       -7.39       
H           110.7714    -7.08572    -9.11151    
H           112.64      -4.7        -6.07       
H           111.39      -5.97       -5.56       
H           113.09232   -6.39167    -5.90869    
H           116.25      -2.61       -11.79      
H           117.48      -3.51       -12.6       
H           117.43609   -3.49928    -10.87982   
H           115.63      -4.97       -13.86      
H           114.81      -3.46       -13.37      
H           114.00784   -4.95978    -13.12864   
H           107.14      -3.23       -7.39       
H           119.19      -8.27       -14.37      
S           109.29      -0.58       -8.45       
C           107.97      -2.58       -7.63       
C           107.72      -1.3        -7.94       
C           120.77      -13.45      -15.19      
C           120.95      -12.17      -15.68      
C           119.64      -13.54      -14.27      
N           121.77      -11.82      -16.62      
N           120.41      -9.94       -15.78      
S           121.59      -10.2       -16.85      
H           118.17      -12.73      -13.08      
H           119.3       -14.55      -14.04      
C           118.93      -12.45      -13.79      
C           120.19      -11.03      -15.05      
C           119.28      -11.17      -14.0       
C           132.82      -24.55      -15.73      
C           132.86      -23.33      -16.28      
S           131.19      -25.23      -15.73      
C           128.04      -19.72      -17.03      
C           127.75      -21.08      -16.6       
C           126.45      -21.43      -16.19      
C           125.47      -20.45      -16.19      
C           125.78      -19.09      -16.65      
C           127.05      -18.74      -17.18      
C           124.05      -20.45      -15.58      
C           123.59      -18.98      -15.77      
C           124.63      -18.2       -16.37      
C           129.53      -19.53      -17.3       
C           130.03      -20.93      -16.99      
C           128.99      -21.86      -16.64      
C           122.49      -18.29      -15.38      
C           122.34      -16.9       -15.61      
C           123.37      -16.24      -16.38      
C           124.52      -16.86      -16.81      
C           131.26      -21.4       -17.08      
C           131.56      -22.71      -16.58      
C           130.53      -23.63      -16.2       
C           129.22      -23.21      -16.2       
C           123.13      -21.28      -16.53      
C           123.84      -20.79      -14.08      
C           129.9       -19.03      -18.62      
C           130.07      -18.63      -16.12      
H           127.29      -17.75      -17.4       
H           126.15      -22.44      -15.95      
H           132.04      -20.7       -17.37      
H           128.46      -23.86      -15.91      
H           121.65      -18.72      -14.81      
H           125.3       -16.39      -17.39      
H           123.22      -22.33      -16.33      
H           122.13      -20.84      -16.49      
H           123.47188   -21.34547   -17.56292   
H           124.11      -19.96      -13.46      
H           122.79      -20.93      -13.85      
H           124.43527   -21.64439   -13.75785   
H           131.18      -18.64      -16.33      
H           129.9       -19.06      -15.04      
H           129.79104   -17.59284   -16.30597   
H           130.9       -18.57      -18.58      
H           129.36      -18.13      -18.86      
H           129.70692   -19.78163   -19.38542   
H           120.49      -16.3       -14.62      
H           133.85      -22.87      -16.4       
S           123.05      -14.52      -16.47      
C           121.34      -15.97      -15.26      
C           121.55      -14.66      -15.55      
C           136.16      -26.84      -14.03      
C           136.33      -26.02      -15.21      
C           134.86      -27.04      -13.66      
N           137.5       -25.88      -15.9       
N           135.59      -24.62      -16.83      
S           137.2       -24.79      -17.11      
H           132.8       -26.51      -13.8       
H           134.6       -27.57      -12.74      
C           133.76      -26.36      -14.3       
C           135.23      -25.37      -15.79      
C           133.88      -25.46      -15.3       
C           145.99      -34.61      -3.21       
C           144.84      -35.13      -3.69       
S           146.56      -33.31      -4.16       
C           141.57      -32.58      -8.15       
C           142.89      -32.04      -8.03       
C           143.24      -31.0       -8.9        
C           142.37      -30.6       -9.91       
C           141.09      -31.1       -9.92       
C           140.59      -31.99      -8.99       
C           142.62      -29.62      -11.02      
C           141.19      -29.33      -11.49      
C           140.28      -30.27      -10.88      
C           141.52      -33.98      -7.5        
C           142.79      -33.86      -6.59       
C           143.55      -32.74      -6.95       
C           140.76      -28.35      -12.33      
C           139.33      -28.28      -12.49      
C           138.49      -29.13      -11.74      
C           138.93      -30.24      -10.99      
C           143.15      -34.69      -5.58       
C           144.32      -34.45      -4.85       
C           145.11      -33.35      -5.21       
C           144.69      -32.43      -6.19       
C           143.24      -28.26      -10.54      
C           143.36      -30.22      -12.19      
C           140.21      -34.24      -6.69       
C           141.76      -35.21      -8.49       
H           139.63      -32.42      -9.12       
H           144.32      -30.65      -8.84       
H           142.45      -35.37      -5.24       
H           145.22      -31.48      -6.35       
H           141.36      -27.67      -12.99      
H           138.23      -31.03      -10.58      
H           144.2       -28.53      -10.0       
H           143.55      -27.57      -11.3       
H           142.66011   -27.78619   -9.74796    
H           142.64      -30.62      -12.96      
H           143.8       -29.43      -12.76      
H           144.10362   -30.97084   -11.92287   
H           141.06      -36.07      -8.29       
H           142.81      -35.53      -8.39       
H           141.60097   -34.94034   -9.53407    
H           139.38      -34.41      -7.32       
H           140.41      -35.16      -6.16       
H           139.91879   -33.48285   -5.96197    
H           139.05      -26.63      -13.91      
H           144.43      -36.12      -3.29       
S           136.77      -28.78      -12.22      
C           138.57      -27.35      -13.27      
C           137.22      -27.54      -13.36      
C           148.23      -35.74      0.32        
C           147.53      -36.72      -0.35       
C           148.23      -34.48      -0.25       
N           147.61      -38.05      -0.09       
N           146.24      -37.42      -2.05       
S           146.47      -38.7       -1.03       
H           147.76      -33.15      -1.7        
H           148.76      -33.68      0.24        
C           147.5       -34.13      -1.37       
C           146.82      -36.36      -1.57       
C           146.75      -35.01      -2.09       
C           150.59      -39.5       16.25       
C           150.36      -38.22      15.96       
S           151.06      -40.46      14.85       
C           150.0       -36.64      9.96        
C           150.42      -37.95      10.19       
C           150.66      -38.9       9.19        
C           150.5       -38.48      7.89        
C           150.24      -37.11      7.64        
C           150.08      -36.17      8.62        
C           150.71      -39.25      6.58        
C           150.65      -38.05      5.55        
C           150.12      -36.87      6.17        
C           149.88      -35.85      11.3        
C           150.2       -36.87      12.33       
C           150.51      -38.09      11.67       
C           150.65      -38.09      4.19        
C           149.94      -37.13      3.42        
C           149.35      -35.99      4.08        
C           149.54      -35.79      5.45        
C           150.13      -36.79      13.68       
C           150.46      -37.92      14.54       
C           150.87      -39.05      13.82       
C           150.8       -39.25      12.44       
C           152.06      -39.98      6.48        
C           149.43      -40.06      6.27        
C           150.83      -34.67      11.23       
C           148.46      -35.35      11.57       
H           149.83      -35.13      8.37        
H           150.87      -39.9       9.35        
H           149.83      -35.89      14.18       
H           151.03      -40.23      12.08       
H           151.04      -38.94      3.75        
H           149.05      -35.02      6.0         
H           152.16      -40.74      7.29        
H           151.92      -40.5       5.54        
H           152.93775   -39.33438   6.50902     
H           148.57      -39.42      6.15        
H           149.63      -40.56      5.25        
H           149.10996   -40.76408   7.03808     
H           148.46      -34.66      12.42       
H           147.88      -36.14      11.86       
H           147.97332   -34.81534   10.75429    
H           150.28      -33.99      10.64       
H           151.77      -34.91      10.74       
H           151.14527   -34.21462   12.16879    
H           149.89      -37.87      1.28        
H           150.11      -37.43      16.7        
S           148.54      -34.91      2.96        
C           149.56      -37.15      1.99        
C           148.88      -35.99      1.59        
C           150.99      -41.04      20.36       
C           149.8       -40.39      19.86       
C           151.93      -41.27      19.35       
N           148.65      -40.12      20.55       
N           148.53      -39.37      18.28       
S           147.66      -39.22      19.63       
H           152.48      -41.16      17.26       
H           152.89      -41.64      19.61       
C           151.76      -40.8       18.03       
C           149.68      -39.84      18.53       
C           150.65      -40.07      17.57       
C           155.79      -45.4       35.67       
C           156.48      -45.74      34.57       
S           154.29      -44.65      35.27       
C           154.58      -44.4       28.9        
C           153.64      -44.13      29.93       
C           152.35      -43.63      29.67       
C           152.07      -43.09      28.41       
C           153.05      -43.2       27.4        
C           154.23      -43.92      27.66       
C           150.87      -42.28      27.89       
C           151.29      -42.17      26.4        
C           152.51      -42.78      26.09       
C           155.96      -44.8       29.42       
C           155.53      -45.06      30.91       
C           154.22      -44.52      31.15       
C           150.58      -41.59      25.38       
C           151.1       -41.69      24.02       
C           152.36      -42.22      23.81       
C           153.04      -42.88      24.81       
C           156.38      -45.46      31.95       
C           155.93      -45.37      33.29       
C           154.65      -44.86      33.51       
C           153.78      -44.5       32.45       
C           149.54      -43.02      28.13       
C           150.88      -40.83      28.35       
C           156.53      -46.11      28.79       
C           157.02      -43.69      29.22       
H           154.95      -43.98      26.76       
H           151.64      -43.54      30.48       
H           157.4       -45.68      31.66       
H           152.82      -44.04      32.66       
H           149.6       -41.13      25.53       
H           153.87      -43.55      24.61       
H           149.29      -42.73      29.21       
H           148.64      -42.59      27.68       
H           149.59618   -44.08044   27.8842     
H           151.71      -40.22      27.89       
H           149.99      -40.34      27.92       
H           150.99854   -40.7533    29.43082    
H           157.05      -43.28      28.19       
H           158.0       -44.17      29.47       
H           156.98384   -42.9233    29.99393    
H           156.51      -46.04      27.7        
H           157.58      -46.12      29.16       
H           156.05147   -47.0308    29.12352    
H           149.51      -40.66      22.91       
H           157.38      -46.29      34.64       
S           152.73      -42.24      22.1        
C           150.41      -41.22      22.84       
C           151.18      -41.44      21.69       
C           156.68      -46.05      40.02       
C           157.76      -46.01      39.06       
C           155.45      -45.91      39.44       
N           159.04      -46.39      39.33       
N           158.64      -45.89      36.88       
S           159.89      -46.26      37.89       
H           154.21      -45.41      37.79       
H           154.69      -45.96      40.23       
C           155.24      -45.54      38.06       
C           157.5       -45.88      37.61       
C           156.2       -45.56      37.06       
H           27.96       40.38       27.84       
H           156.78      -46.32      41.11       
