612

C           47.59       90.88       51.89       
C           47.88       89.65       52.5        
S           46.55       90.58       50.52       
C           46.11       84.16       50.44       
C           45.48       85.29       49.82       
C           44.67       85.21       48.7        
C           44.5        83.92       48.2        
C           44.99       82.77       48.95       
C           45.82       82.85       50.06       
C           43.73       83.54       47.03       
C           43.87       81.99       47.12       
C           44.49       81.54       48.3        
C           46.93       84.61       51.67       
C           46.73       86.14       51.63       
C           46.04       86.56       50.44       
C           43.39       81.04       46.2        
C           43.4        79.68       46.57       
C           44.04       79.28       47.75       
C           44.57       80.19       48.65       
C           47.27       87.14       52.4        
C           47.24       88.51       51.95       
C           46.55       88.85       50.81       
C           45.93       87.86       50.08       
C           42.22       83.91       47.15       
C           44.21       84.08       45.69       
C           46.38       84.02       52.96       
C           48.37       84.18       51.34       
H           46.25       81.98       50.49       
H           44.27       86.1        48.21       
H           47.86       86.86       53.32       
H           45.3        88.09       49.16       
H           42.87       81.4        45.28       
H           45.04       79.95       49.56       
H           42.05       84.91       47.37       
H           41.86       83.79       46.19       
H           41.66333    83.31209    47.87161    
H           45.18       83.61       45.43       
H           43.6        83.66       44.88       
H           44.32622    85.16014    45.60113    
H           48.41       83.12       51.17       
H           48.62       84.45       50.36       
H           49.15352    84.58295    51.98174    
H           46.26       82.98       52.78       
H           47.01       84.11       53.86       
H           45.36381    84.35873    53.1618     
H           42.22       78.55       44.95       
H           48.66       89.5        53.29       
S           44.03       77.52       47.85       
C           42.85       78.49       45.86       
C           43.13       77.33       46.38       
C           49.14       94.95       52.29       
C           49.72       93.92       53.11       
C           48.09       94.59       51.56       
N           50.8        94.03       53.88       
N           49.85       91.7        53.81       
S           50.78       92.65       54.76       
H           46.77       93.13       50.79       
H           47.54       95.35       51.04       
C           47.63       93.24       51.46       
C           49.19       92.55       53.02       
C           48.14       92.21       52.12       
C           52.03       110.2       47.41       
C           50.86       109.64      47.64       
S           53.38       109.38      48.16       
C           50.13       104.47      50.48       
C           51.52       104.7       50.19       
C           52.58       103.84      50.57       
C           52.22       102.62      51.14       
C           50.82       102.34      51.38       
C           49.79       103.26      51.05       
C           53.06       101.37      51.47       
C           51.96       100.44      51.94       
C           50.66       101.0       51.83       
C           49.29       105.7       50.21       
C           50.21       106.43      49.29       
C           51.52       106.05      49.54       
C           52.13       99.1        52.11       
C           50.99       98.26       52.12       
C           49.73       98.89       51.81       
C           49.54       100.27      51.88       
C           49.88       107.62      48.66       
C           50.9        108.43      48.3        
C           52.24       108.06      48.65       
C           52.58       106.85      49.17       
C           53.85       100.81      50.23       
C           53.97       101.59      52.69       
C           47.9        105.32      49.65       
C           49.17       106.45      51.57       
H           48.8        102.88      51.08       
H           53.59       104.06      50.36       
H           48.86       107.88      48.45       
H           53.57       106.53      49.4        
H           53.16       98.68       52.19       
H           48.58       100.71      51.59       
H           54.69       101.5       50.03       
H           54.44       99.98       50.45       
H           53.28847    100.42125   49.3805     
H           54.95       101.83      52.29       
H           54.09       100.71      53.31       
H           53.70858    102.46609   53.28348    
H           48.52       105.91      52.29       
H           50.07       106.4       52.12       
H           48.89049    107.50353   51.56283    
H           47.56       104.74      50.49       
H           47.24       106.25      49.59       
H           47.94343    104.78432   48.70171    
H           51.68       96.22       52.73       
H           49.98       110.12      47.19       
S           48.55       97.55       51.66       
C           50.83       96.86       52.39       
C           49.67       96.29       52.16       
C           52.39       114.21      45.56       
C           52.39       113.01      44.7        
C           52.31       113.9       46.9        
N           52.39       112.97      43.47       
N           52.27       110.68      44.41       
S           52.34       111.46      43.0        
H           52.41       112.53      48.52       
H           52.56       114.7       47.62       
C           52.24       112.58      47.44       
C           52.3        111.64      45.29       
C           52.21       111.44      46.69       
C           56.21       130.26      45.42       
C           55.69       129.55      46.45       
S           56.36       129.15      44.0        
C           53.98       123.7       46.35       
C           54.39       124.29      45.06       
C           54.65       123.6       43.91       
C           54.45       122.19      44.0        
C           53.92       121.59      45.19       
C           53.81       122.33      46.39       
C           54.52       121.09      42.92       
C           53.88       119.87      43.63       
C           53.46       120.27      44.93       
C           54.27       124.68      47.41       
C           54.6        125.99      46.63       
C           54.79       125.67      45.31       
C           53.64       118.57      43.17       
C           53.15       117.66      44.17       
C           52.68       118.17      45.39       
C           52.89       119.44      45.8        
C           54.77       127.28      47.12       
C           55.24       128.23      46.18       
C           55.58       127.81      44.9        
C           55.26       126.54      44.39       
C           53.75       121.59      41.71       
C           56.0        120.67      42.52       
C           53.01       124.79      48.33       
C           55.39       124.26      48.28       
H           53.26       121.95      47.31       
H           54.94       124.11      43.01       
H           54.48       127.56      48.11       
H           55.6        126.26      43.35       
H           54.0        118.28      42.17       
H           52.56       119.65      46.82       
H           54.21       121.16      40.89       
H           53.77       122.66      41.63       
H           52.67271    121.44018   41.78134    
H           56.58       120.37      43.44       
H           55.92       119.75      41.89       
H           56.55517    121.47192   42.03337    
H           54.91       123.53      49.0        
H           55.82       124.97      48.93       
H           56.27317    123.93237   47.73158    
H           52.67       123.77      48.64       
H           53.37       125.29      49.29       
H           52.17903    125.30303   47.84587    
H           53.17       115.62      43.19       
H           55.47       130.11      47.37       
S           51.94       116.81      46.28       
C           52.94       116.21      44.03       
C           52.55       115.61      45.17       
C           59.02       133.53      45.69       
C           58.03       133.51      44.63       
C           59.03       132.47      46.49       
N           57.89       134.43      43.71       
N           56.15       132.7       43.49       
S           56.59       134.11      42.85       
H           58.12       130.69      47.13       
H           59.82       132.28      47.18       
C           58.08       131.45      46.37       
C           56.99       132.45      44.56       
C           56.94       131.49      45.59       
C           73.2        142.21      44.8        
C           72.32       142.15      43.69       
S           72.29       141.88      46.26       
C           66.83       139.66      44.12       
C           67.55       139.67      45.28       
C           67.26       138.89      46.4        
C           66.05       138.22      46.39       
C           65.26       138.23      45.21       
C           65.65       138.88      43.99       
C           65.52       137.29      47.42       
C           64.21       136.88      46.73       
C           64.04       137.49      45.49       
C           67.56       140.3       42.94       
C           68.8        140.88      43.62       
C           68.72       140.55      45.01       
C           63.35       135.93      47.21       
C           62.2        135.56      46.43       
C           62.07       136.14      45.18       
C           62.97       137.12      44.7        
C           69.89       141.45      43.12       
C           70.95       141.76      43.96       
C           70.85       141.49      45.35       
C           69.73       140.96      45.89       
C           66.41       136.05      47.56       
C           65.18       137.95      48.78       
C           68.07       139.27      41.88       
C           66.64       141.38      42.38       
H           65.03       138.85      43.1        
H           67.86       138.92      47.28       
H           69.93       141.63      42.05       
H           69.67       140.73      46.91       
H           63.5        135.66      48.27       
H           62.74       137.54      43.7        
H           67.36       136.25      47.98       
H           65.96       135.44      48.37       
H           66.55859    135.60423   46.57648    
H           64.31       138.54      48.56       
H           64.72       137.22      49.5        
H           65.96109    138.53582   49.26457    
H           67.2        142.29      42.18       
H           65.88       141.6       43.13       
H           66.09288    141.17916   41.4589     
H           67.22       138.72      41.62       
H           68.6        139.76      41.05       
H           68.78956    138.60132   42.35244    
H           61.13       133.95      47.5        
H           72.55       142.58      42.68       
S           60.6        135.6       44.38       
C           61.12       134.63      46.66       
C           60.12       134.58      45.71       
C           77.49       142.99      44.28       
C           76.95       142.78      45.6        
C           76.57       142.89      43.28       
N           77.65       142.76      46.7        
N           75.33       142.29      47.17       
S           76.68       142.5       48.06       
H           74.62       142.44      42.68       
H           76.91       142.94      42.25       
C           75.22       142.6       43.57       
C           75.56       142.56      45.87       
C           74.64       142.53      44.81       
C           92.59       141.93      37.18       
C           91.52       142.4       36.54       
S           92.23       141.63      38.87       
C           85.97       142.67      39.22       
C           87.07       142.59      40.07       
C           86.95       142.73      41.46       
C           85.61       142.89      41.96       
C           84.52       142.85      41.14       
C           84.72       142.68      39.75       
C           85.14       143.33      43.35       
C           83.6        143.13      43.25       
C           83.28       142.87      41.88       
C           86.37       142.89      37.78       
C           87.91       142.66      37.9        
C           88.25       142.44      39.25       
C           82.58       143.31      44.19       
C           81.23       143.18      43.81       
C           81.0        142.87      42.46       
C           81.95       142.77      41.46       
C           88.87       142.61      36.94       
C           90.29       142.34      37.27       
C           90.53       142.15      38.68       
C           89.57       142.2       39.65       
C           85.74       142.43      44.41       
C           85.3        144.84      43.66       
C           85.54       141.78      37.0        
C           86.01       144.31      37.32       
H           83.83       142.53      39.15       
H           87.81       142.62      42.13       
H           88.69       142.88      35.96       
H           89.84       141.96      40.68       
H           82.84       143.44      45.22       
H           81.62       142.71      40.4        
H           85.13       142.68      45.28       
H           86.73       142.63      44.82       
H           85.5889     141.37232   44.19415    
H           84.6        145.26      42.98       
H           84.98       145.26      44.63       
H           86.2974     145.23466   43.46626    
H           85.02       144.61      37.75       
H           86.73       145.0       37.8        
H           86.15139    144.60692   36.28079    
H           84.71       142.22      36.4        
H           85.12       141.11      37.8        
H           86.16543    141.09771   36.42432    
H           80.08       143.22      45.64       
H           91.55       142.63      35.5        
S           79.3        142.87      42.17       
C           80.0        143.28      44.58       
C           78.86       143.16      43.87       
C           96.64       141.45      35.84       
C           96.03       140.41      36.65       
C           95.81       142.48      35.55       
N           96.64       139.28      37.04       
N           94.28       139.43      37.88       
S           95.54       138.49      37.97       
H           94.0        143.49      35.81       
H           96.19       143.28      34.88       
C           94.54       142.61      36.02       
C           94.69       140.52      37.16       
C           93.92       141.67      36.78       
C           107.37      138.93      24.47       
C           106.82      140.18      24.64       
S           107.46      138.08      26.02       
C           104.31      141.97      29.82       
C           104.99      140.79      29.98       
C           104.85      139.98      31.05       
C           103.84      140.18      31.96       
C           103.13      141.41      31.88       
C           103.41      142.33      30.86       
C           103.49      139.42      33.26       
C           102.18      140.08      33.59       
C           102.09      141.36      32.92       
C           104.67      142.69      28.52       
C           105.3       141.58      27.74       
C           105.69      140.59      28.68       
C           101.16      139.68      34.4        
C           100.04      140.53      34.59       
C           100.04      141.81      33.94       
C           101.07      142.26      33.12       
C           105.63      141.58      26.41       
C           106.33      140.45      25.97       
C           106.69      139.38      26.91       
C           106.4       139.5       28.28       
C           103.36      137.93      32.88       
C           104.43      139.63      34.47       
C           103.33      143.15      27.79       
C           105.64      143.91      28.65       
H           102.9       143.29      30.87       
H           105.51      139.14      31.13       
H           105.32      142.32      25.73       
H           106.68      138.69      28.98       
H           101.16      138.71      34.81       
H           101.06      143.24      32.6        
H           104.29      137.45      32.75       
H           102.97      137.49      33.76       
H           102.81987   137.77672   31.94573    
H           104.38      140.66      34.87       
H           104.05      139.09      35.37       
H           105.47816   139.39242   34.28832    
H           105.29      144.78      28.18       
H           106.48      143.52      28.17       
H           105.7334    144.26203   29.67735    
H           102.97      143.95      28.43       
H           103.62      143.53      26.78       
H           102.6199    142.33121   27.67407    
H           98.56       139.49      35.85       
H           106.84      140.88      23.86       
S           98.63       142.72      34.43       
C           98.84       140.32      35.27       
C           97.99       141.38      35.33       
C           107.87      137.06      20.5        
C           108.8       136.77      21.52       
C           106.94      137.99      20.83       
N           109.89      135.9       21.46       
N           109.35      136.64      23.79       
S           110.3       135.57      23.02       
H           106.2       139.37      22.13       
H           106.2       138.41      20.05       
C           106.9       138.63      22.11       
C           108.56      137.22      22.9        
C           107.62      138.27      23.18       
C           109.55      137.9       4.06        
C           110.64      137.75      4.77        
S           108.06      137.83      4.99        
C           110.36      136.79      10.88       
C           109.16      136.79      10.2        
C           107.94      136.77      10.85       
C           107.91      136.57      12.21       
C           109.11      136.64      12.97       
C           110.35      136.83      12.31       
C           106.66      136.52      13.08       
C           107.32      136.67      14.45       
C           108.78      136.62      14.38       
C           111.53      136.76      9.88        
C           110.78      137.11      8.61        
C           109.41      137.16      8.81        
C           106.67      136.79      15.66       
C           107.5       136.67      16.84       
C           108.88      136.75      16.72       
C           109.57      136.71      15.52       
C           111.24      137.18      7.35        
C           110.4       137.45      6.22        
C           108.99      137.48      6.45        
C           108.56      137.3       7.76        
C           105.68      137.62      12.77       
C           106.08      135.03      13.05       
C           112.63      137.81      10.22       
C           112.08      135.25      9.68        
H           111.27      136.72      12.95       
H           106.95      136.84      10.34       
H           112.24      136.95      7.12        
H           107.51      137.17      7.97        
H           105.53      136.82      15.72       
H           110.68      136.64      15.51       
H           105.31      137.56      11.7        
H           104.88      137.64      13.49       
H           106.15967   138.5864    12.92519    
H           106.94      134.43      13.3        
H           105.47      134.9       13.96       
H           105.57543   134.71205   12.13763    
H           112.8       135.15      8.83        
H           111.19      134.7       9.51        
H           112.53997   134.8891    10.59994    
H           113.62      137.49      9.85        
H           112.85      137.93      11.3        
H           112.441     138.82767   9.87835     
H           105.98      136.93      18.32       
H           111.67      137.9       4.42        
S           109.58      136.75      18.32       
C           107.02      136.71      18.15       
C           107.96      136.63      19.12       
C           108.91      138.99      -0.18       
C           110.2       139.01      0.38        
C           107.98      138.64      0.72        
N           111.34      139.28      -0.32       
N           111.84      138.41      1.92        
S           112.58      138.76      0.56        
H           107.41      137.82      2.6         
H           106.98      138.42      0.41        
C           108.23      138.21      2.04        
C           110.5       138.5       1.71        
C           109.44      138.22      2.64        
C           101.78      148.59      -11.88      
C           101.79      148.9       -10.56      
S           102.8       147.18      -12.28      
C           104.75      145.3       -6.57       
C           105.19      145.02      -7.88       
C           106.08      144.0       -8.18       
C           106.62      143.16      -7.16       
C           106.14      143.38      -5.81       
C           105.19      144.39      -5.55       
C           107.46      141.9       -7.26       
C           107.52      141.6       -5.71       
C           106.75      142.48      -4.9        
C           104.01      146.63      -6.42       
C           103.57      146.81      -7.89       
C           104.35      145.91      -8.7        
C           108.24      140.56      -5.07       
C           108.19      140.45      -3.63       
C           107.2       141.18      -2.98       
C           106.55      142.26      -3.54       
C           102.83      147.85      -8.4        
C           102.63      147.99      -9.8        
C           103.26      146.99      -10.58      
C           104.18      145.99      -10.11      
C           106.64      140.87      -8.02       
C           108.81      142.23      -7.93       
C           102.83      146.26      -5.45       
C           104.86      147.89      -6.0        
H           104.75      144.38      -4.47       
H           106.27      143.84      -9.24       
H           102.45      148.56      -7.64       
H           104.78      145.38      -10.77      
H           108.97      140.0       -5.61       
H           105.99      142.94      -2.99       
H           106.36      141.22      -9.01       
H           105.73      140.72      -7.48       
H           107.01642   139.84728   -7.99869    
H           108.61      142.3       -8.94       
H           109.47      141.35      -7.69       
H           109.25962   143.17346   -7.62043    
H           104.44      148.72      -5.37       
H           105.12      148.38      -6.94       
H           105.80178   147.70029   -5.48507    
H           103.26      145.95      -4.49       
H           102.36      145.29      -5.77       
H           102.06049   147.00852   -5.26112    
H           109.68      138.77      -3.12       
H           101.23      149.73      -10.22      
S           107.11      140.67      -1.31       
C           108.86      139.5       -2.78       
C           108.49      139.61      -1.46       
C           98.8        149.85      -14.82      
C           99.07       150.77      -13.81      
C           99.68       148.82      -15.03      
N           98.36       151.87      -13.39      
N           100.09      151.18      -11.73      
S           98.92       152.33      -11.92      
H           101.03      147.49      -14.16      
H           99.54       148.26      -15.95      
C           100.63      148.45      -14.06      
C           100.09      150.41      -12.87      
C           100.92      149.16      -12.92      
C           83.79       150.43      -21.76      
C           84.39       151.52      -21.23      
S           84.64       148.98      -21.23      
C           89.86       151.4       -18.63      
C           89.3        150.09      -18.83      
C           89.97       148.9       -18.56      
C           91.26       149.09      -18.17      
C           91.89       150.4       -18.0       
C           91.1        151.56      -18.13      
C           92.26       148.0       -17.86      
C           93.46       148.81      -17.41      
C           93.32       150.18      -17.6       
C           88.78       152.46      -18.9       
C           87.62       151.65      -19.39      
C           87.93       150.29      -19.35      
C           94.64       148.27      -17.0       
C           95.65       149.16      -16.65      
C           95.53       150.52      -16.88      
C           94.36       151.12      -17.34      
C           86.46       152.15      -19.93      
C           85.59       151.27      -20.49      
C           85.92       149.92      -20.45      
C           87.03       149.37      -19.79      
C           91.84       147.21      -16.56      
C           92.73       147.05      -18.98      
C           88.41       153.27      -17.63      
C           89.29       153.42      -20.04      
H           91.45       152.58      -17.91      
H           89.45       147.96      -18.73      
H           86.27       153.21      -19.96      
H           87.35       148.32      -19.97      
H           94.88       147.2       -16.88      
H           94.3        152.22      -17.46      
H           91.0        146.57      -16.83      
H           92.72       146.64      -16.19      
H           91.50671    147.86949   -15.75869   
H           93.34       147.71      -19.69      
H           93.52       146.27      -18.74      
H           91.90284    146.54805   -19.48195   
H           90.09       154.01      -19.62      
H           88.47       154.13      -20.27      
H           89.59629    152.90715   -20.95174   
H           89.23       153.8       -17.16      
H           87.71       154.04      -17.99      
H           87.88047    152.73351   -16.84268   
H           97.16       147.81      -15.87      
H           84.04       152.47      -21.56      
S           96.94       151.36      -16.21      
C           96.89       148.8       -16.11      
C           97.6        149.87      -15.62      
C           80.37       149.77      -24.49      
C           81.0        151.06      -24.38      
C           80.86       148.91      -23.61      
N           80.67       152.15      -25.08      
N           82.72       152.48      -23.69      
S           81.87       153.26      -24.84      
H           82.38       148.24      -22.14      
H           80.45       147.91      -23.61      
C           82.0        149.07      -22.78      
C           82.17       151.28      -23.55      
C           82.7        150.27      -22.71      
C           69.91       143.46      -35.78      
C           70.52       142.71      -34.85      
S           70.56       145.1       -35.7       
C           74.52       144.97      -30.72      
C           74.17       145.87      -31.78      
C           74.55       147.2       -31.79      
C           75.21       147.68      -30.67      
C           75.61       146.78      -29.63      
C           75.4        145.37      -29.71      
C           75.51       149.12      -30.27      
C           76.33       148.88      -29.06      
C           76.35       147.53      -28.64      
C           73.62       143.73      -30.84      
C           73.13       143.84      -32.23      
C           73.27       145.16      -32.65      
C           76.95       149.81      -28.29      
C           77.75       149.41      -27.21      
C           77.72       148.07      -26.84      
C           76.89       147.13      -27.45      
C           72.3        142.98      -32.88      
C           71.49       143.42      -33.98      
C           71.67       144.75      -34.39      
C           72.55       145.67      -33.68      
C           76.36       149.86      -31.37      
C           74.29       149.98      -29.91      
C           74.46       142.43      -30.6       
C           72.36       143.77      -29.93      
H           75.6        144.74      -28.85      
H           74.28       147.91      -32.57      
H           72.27       141.96      -32.55      
H           72.63       146.72      -33.99      
H           76.94       150.85      -28.58      
H           76.89       146.04      -27.07      
H           76.24       150.97      -31.35      
H           76.05       149.61      -32.37      
H           77.39187    149.50888   -31.36283   
H           73.99       150.24      -30.87      
H           74.62       150.85      -29.41      
H           73.5513     149.39908   -29.35777   
H           72.68       143.2       -29.03      
H           71.47       143.44      -30.4       
H           72.00299    144.73602   -29.57299   
H           75.05       142.47      -29.69      
H           73.8        141.57      -30.57      
H           75.2466     142.26402   -31.33608   
H           78.96       151.16      -26.53      
H           70.35       141.64      -34.79      
S           78.74       147.74      -25.42      
C           78.71       150.13      -26.4       
C           79.31       149.39      -25.42      
C           67.28       142.52      -39.24      
C           67.92       141.45      -38.46      
C           67.56       143.74      -38.72      
N           67.91       140.19      -38.93      
N           69.25       140.57      -36.77      
S           68.69       139.38      -37.78      
H           68.34       145.18      -37.31      
H           66.99       144.6       -39.16      
C           68.37       144.09      -37.54      
C           68.75       141.74      -37.27      
C           69.01       143.14      -36.87      
H           42.99       76.32       45.94       
H           66.77       142.4       -40.15      
