612

C           30.64       68.62       54.64       
C           31.55       69.48       54.29       
S           30.03       69.04       56.2        
C           32.85       74.55       57.25       
C           31.83       73.74       57.82       
C           31.09       74.17       58.92       
C           31.47       75.36       59.6        
C           32.48       76.15       58.96       
C           33.17       75.75       57.82       
C           30.91       76.15       60.79       
C           31.93       77.24       60.96       
C           32.81       77.26       59.86       
C           33.59       73.72       56.16       
C           32.58       72.6        55.91       
C           31.72       72.51       57.04       
C           32.01       78.04       62.04       
C           33.0        78.98       62.13       
C           33.9        79.04       61.04       
C           33.78       78.24       59.88       
C           32.65       71.59       55.02       
C           31.76       70.59       55.14       
C           30.96       70.49       56.25       
C           30.94       71.42       57.26       
C           29.57       76.66       60.17       
C           30.75       75.25       61.99       
C           33.7        74.62       54.91       
C           34.94       73.2        56.54       
H           34.04       76.31       57.37       
H           30.49       73.45       59.44       
H           33.37       71.64       54.17       
H           30.31       71.32       58.15       
H           31.34       78.03       62.85       
H           34.6        78.17       59.18       
H           28.88       75.85       60.01       
H           29.79       77.11       59.18       
H           29.10093    77.46017    60.74254    
H           30.08       74.48       61.69       
H           30.33       75.7        62.88       
H           31.64107    74.6701     62.23045    
H           35.59       73.95       56.33       
H           35.17       72.34       55.87       
H           35.00546    72.83636    57.56547    
H           34.65       75.22       55.03       
H           33.86       73.9        54.1        
H           32.83275    75.26101    54.75163    
H           32.65       80.02       63.95       
H           32.23       69.33       53.44       
S           35.04       80.32       61.26       
C           33.26       79.98       63.11       
C           34.42       80.69       62.82       
C           30.66       64.45       53.41       
C           29.47       65.04       53.89       
C           31.71       65.3        53.34       
N           28.32       64.35       54.2        
N           28.34       66.78       55.01       
S           27.28       65.51       54.85       
H           32.65       67.14       53.55       
H           32.62       64.86       53.04       
C           31.7        66.67       53.72       
C           29.47       66.43       54.35       
C           30.56       67.29       54.16       
C           31.98       48.75       57.73       
C           32.99       49.62       57.85       
S           30.71       49.41       56.7        
C           32.87       55.1        54.94       
C           31.77       54.23       54.68       
C           30.78       54.69       53.88       
C           30.77       56.04       53.53       
C           31.87       56.93       53.93       
C           33.0        56.42       54.6        
C           29.63       56.85       53.0        
C           30.23       58.29       53.04       
C           31.59       58.27       53.45       
C           33.9        54.36       55.82       
C           33.3        52.95       55.89       
C           32.01       52.93       55.32       
C           29.57       59.5        52.9        
C           30.25       60.7        52.98       
C           31.68       60.66       53.21       
C           32.3        59.43       53.42       
C           33.77       51.84       56.64       
C           32.83       50.8        56.99       
C           31.63       50.8        56.31       
C           31.13       51.81       55.48       
C           29.22       56.56       51.49       
C           28.42       56.87       53.95       
C           35.27       54.37       55.18       
C           33.8        55.09       57.17       
H           33.91       57.05       54.82       
H           30.01       54.04       53.6        
H           34.72       51.87       57.06       
H           30.24       51.65       54.86       
H           28.56       59.5        52.65       
H           33.28       59.45       53.83       
H           28.68       55.64       51.51       
H           28.56       57.41       51.2        
H           30.0939     56.51667    50.83999    
H           28.62       57.12       55.0        
H           27.67       57.51       53.56       
H           27.86502    55.93566    54.0343     
H           34.25       56.08       57.13       
H           34.27       54.51       57.97       
H           32.79306    55.30677    57.52662    
H           35.51       55.44       55.0        
H           36.03       53.95       55.84       
H           35.35466    53.93258    54.18522    
H           28.75       62.26       52.97       
H           33.74       49.52       58.59       
S           32.3        62.31       53.36       
C           29.81       62.04       52.98       
C           30.71       63.02       53.13       
C           30.81       45.31       60.12       
C           30.56       45.34       58.7        
C           31.8        46.18       60.5        
N           29.87       44.4        58.0        
N           30.29       46.4        56.63       
S           29.69       44.91       56.41       
H           32.97       47.95       60.0        
H           32.35       46.11       61.5        
C           32.22       47.28       59.65       
C           30.81       46.5        57.88       
C           31.61       47.47       58.38       
C           25.22       33.08       70.27       
C           24.81       33.37       69.0        
S           26.62       34.0        70.72       
C           27.13       37.68       65.5        
C           27.71       37.63       66.79       
C           28.63       38.66       67.05       
C           28.84       39.73       66.17       
C           28.26       39.68       64.89       
C           27.44       38.62       64.58       
C           29.68       41.05       66.26       
C           29.48       41.66       64.91       
C           28.71       40.83       64.1        
C           26.28       36.37       65.26       
C           26.3        35.77       66.63       
C           27.26       36.41       67.5        
C           30.06       42.82       64.44       
C           29.94       43.16       63.1        
C           29.19       42.35       62.28       
C           28.56       41.23       62.75       
C           25.57       34.73       67.0        
C           25.66       34.28       68.33       
C           26.72       34.82       69.17       
C           27.54       35.9        68.76       
C           29.2        41.9        67.46       
C           31.16       40.71       66.47       
C           24.86       36.86       64.78       
C           27.04       35.48       64.21       
H           26.87       38.56       63.65       
H           29.31       38.61       67.88       
H           24.8        34.36       66.32       
H           28.25       36.35       69.41       
H           30.64       43.45       65.11       
H           28.01       40.66       62.02       
H           30.03       42.52       67.8        
H           29.15       41.25       68.34       
H           28.26015    42.43601    67.32783    
H           31.31       40.37       67.52       
H           31.72       41.6        66.27       
H           31.4952     39.86843    65.86378    
H           27.13       35.8        63.19       
H           26.68       34.42       64.22       
H           28.04636    35.27302    64.574      
H           25.05       37.58       64.0        
H           24.28       36.04       64.37       
H           24.28168    37.24067    65.62186    
H           31.0        45.12       62.86       
H           23.88       33.1        68.51       
S           29.35       42.91       60.6        
C           30.53       44.3        62.41       
C           30.32       44.28       61.06       
C           23.1        31.33       73.85       
C           22.46       31.42       72.53       
C           24.38       31.85       73.81       
N           21.27       31.06       72.34       
N           22.51       31.75       70.25       
S           21.08       31.07       70.66       
H           26.01       32.72       72.87       
H           24.88       31.92       74.74       
C           25.04       32.36       72.68       
C           23.19       31.91       71.39       
C           24.53       32.36       71.39       
C           14.78       41.81       81.38       
C           16.15       41.67       81.35       
S           14.06       40.38       80.67       
C           19.15       36.67       79.9        
C           17.72       36.65       79.65       
C           17.03       35.54       79.18       
C           17.81       34.42       78.81       
C           19.16       34.39       79.14       
C           19.86       35.53       79.67       
C           17.39       33.16       77.98       
C           18.83       32.52       77.86       
C           19.84       33.31       78.48       
C           19.61       38.07       80.22       
C           18.26       38.76       80.43       
C           17.15       37.9        80.04       
C           19.15       31.61       76.94       
C           20.5        31.55       76.51       
C           21.5        32.25       77.27       
C           21.2        33.12       78.32       
C           17.98       39.98       80.97       
C           16.64       40.42       80.95       
C           15.58       39.62       80.54       
C           15.84       38.33       80.09       
C           16.33       32.2        78.53       
C           17.04       33.62       76.5        
C           20.37       38.04       81.57       
C           20.41       38.83       79.15       
H           20.98       35.57       79.83       
H           15.97       35.68       78.91       
H           18.73       40.64       81.38       
H           15.03       37.69       79.73       
H           18.41       31.08       76.34       
H           21.95       33.72       78.87       
H           15.77       31.85       77.67       
H           15.7        32.77       79.22       
H           16.69576    31.24615    78.91011    
H           17.87       34.25       76.13       
H           17.14       32.84       75.75       
H           16.10187    34.16781    76.41098    
H           21.49       38.7        79.29       
H           20.12       39.85       79.23       
H           20.21472    38.62775    78.09688    
H           21.38       37.51       81.51       
H           20.64       39.04       81.85       
H           19.73125    37.67398    82.37382    
H           20.55       30.35       74.72       
H           16.73       42.39       81.78       
S           23.01       32.16       76.41       
C           21.11       30.95       75.4        
C           22.36       31.26       75.08       
C           11.99       44.81       82.93       
C           13.35       45.18       82.79       
C           11.61       43.6        82.46       
N           13.99       46.3        83.23       
N           15.53       44.71       82.09       
S           15.6        46.12       82.9        
H           12.14       41.59       82.07       
H           10.61       43.26       82.56       
C           12.56       42.62       82.1        
C           14.25       44.27       82.19       
C           13.87       42.89       81.86       
C           -0.79       55.21       82.42       
C           0.51        55.61       82.52       
S           -1.0        53.54       82.73       
C           5.15        51.89       83.38       
C           3.88        51.27       83.36       
C           3.77        49.95       83.55       
C           4.91        49.15       83.65       
C           6.14        49.75       83.49       
C           6.26        51.12       83.41       
C           5.0         47.61       83.71       
C           6.51        47.38       83.82       
C           7.12        48.68       83.61       
C           5.06        53.36       83.18       
C           3.51        53.52       83.33       
C           2.82        52.28       83.28       
C           7.23        46.22       83.93       
C           8.6         46.3        83.7        
C           9.25        47.56       83.52       
C           8.52        48.75       83.47       
C           2.77        54.64       83.11       
C           1.38        54.64       82.95       
C           0.73        53.42       83.03       
C           1.46        52.22       83.23       
C           4.27        47.15       85.02       
C           4.53        46.83       82.46       
C           5.82        53.95       84.33       
C           5.66        53.81       81.81       
H           7.26        51.57       83.37       
H           2.74        49.56       83.68       
H           3.28        55.53       82.72       
H           0.9         51.24       83.23       
H           6.68        45.3        84.01       
H           9.04        49.7        83.28       
H           3.32        47.61       85.01       
H           3.99        46.07       85.13       
H           4.72526     47.41122    85.9753     
H           5.2         46.9        81.64       
H           4.64        45.73       82.66       
H           3.48018     46.9991     82.22044    
H           6.78        53.81       81.78       
H           5.23        54.81       81.64       
H           5.30633     53.16508    81.00558    
H           6.81        54.11       84.01       
H           5.87        53.27       85.17       
H           5.33599     54.7637     84.87013    
H           9.27        44.26       83.76       
H           0.74        56.67       82.5        
S           10.98       47.35       83.36       
C           9.55        45.25       83.66       
C           10.84       45.64       83.37       
C           -4.68       57.06       82.7        
C           -3.62       57.45       83.6        
C           -4.3        56.19       81.68       
N           -3.82       58.27       84.64       
N           -1.5        57.39       84.47       
S           -2.33       58.46       85.31       
H           -2.86       54.8        80.86       
H           -5.04       55.73       80.99       
C           -3.01       55.59       81.61       
C           -2.34       56.85       83.53       
C           -2.02       55.92       82.48       
C           -19.9       53.07       87.97       
C           -18.97      52.33       87.28       
S           -19.17      54.62       88.28       
C           -13.52      54.03       85.29       
C           -14.26      54.97       86.04       
C           -13.67      56.23       86.41       
C           -12.41      56.53       85.92       
C           -11.79      55.61       85.01       
C           -12.36      54.35       84.67       
C           -11.49      57.74       86.26       
C           -10.31      57.39       85.27       
C           -10.52      56.17       84.55       
C           -14.23      52.64       85.38       
C           -15.63      53.06       85.96       
C           -15.54      54.4        86.53       
C           -9.2        58.21       84.93       
C           -8.18       57.63       84.1        
C           -8.4        56.39       83.52       
C           -9.55       55.65       83.71       
C           -16.73      52.35       86.16       
C           -17.76      52.95       86.96       
C           -17.72      54.27       87.36       
C           -16.62      55.01       87.14       
C           -12.15      59.12       85.93       
C           -11.15      57.71       87.7        
C           -14.34      52.07       84.03       
C           -13.41      51.66       86.26       
H           -11.8       53.58       84.19       
H           -14.13      56.83       87.19       
H           -16.61      51.25       85.88       
H           -16.52      56.01       87.57       
H           -8.86       59.07       85.61       
H           -9.63       54.73       83.17       
H           -11.86      59.84       86.72       
H           -13.27      58.98       86.14       
H           -12.03314   59.5363     84.92943    
H           -12.02      58.12       88.21       
H           -10.3       58.39       87.91       
H           -10.90605   56.71266    88.06593    
H           -12.71      51.12       85.56       
H           -14.09      50.87       86.74       
H           -12.77878   52.1419     87.00661    
H           -13.35      51.88       83.59       
H           -14.97      51.23       84.1        
H           -14.90332   52.7445     83.38515    
H           -6.37       58.91       84.3        
H           -19.25      51.34       86.92       
S           -7.15       55.91       82.46       
C           -6.82       58.06       83.82       
C           -6.08       57.22       82.97       
C           -24.07      52.03       89.02       
C           -23.51      53.29       89.38       
C           -23.19      51.25       88.34       
N           -24.23      54.36       89.81       
N           -21.85      54.97       89.38       
S           -23.3       55.66       89.82       
H           -21.23      50.84       87.58       
H           -23.51      50.33       87.9        
C           -21.83      51.56       88.11       
C           -22.15      53.67       89.06       
C           -21.24      52.73       88.44       
C           -38.57      52.37       81.23       
C           -37.46      51.65       80.86       
S           -38.34      53.1        82.82       
C           -32.5       50.97       84.17       
C           -33.44      51.89       84.69       
C           -33.19      52.5        85.95       
C           -32.03      52.24       86.69       
C           -31.08      51.38       86.09       
C           -31.25      50.73       84.81       
C           -31.47      52.88       87.94       
C           -30.05      52.53       87.78       
C           -29.88      51.46       86.94       
C           -33.07      50.35       82.88       
C           -34.27      51.26       82.65       
C           -34.52      52.04       83.82       
C           -29.06      52.95       88.58       
C           -27.79      52.3        88.57       
C           -27.6       51.23       87.66       
C           -28.64      50.8        86.83       
C           -35.14      51.19       81.68       
C           -36.38      51.75       81.79       
C           -36.67      52.51       82.93       
C           -35.72      52.75       83.91       
C           -31.58      54.44       87.89       
C           -32.28      52.37       89.19       
C           -32.0       50.29       81.74       
C           -33.75      48.92       83.07       
H           -30.42      50.13       84.4        
H           -33.91      53.22       86.32       
H           -34.93      50.63       80.76       
H           -36.1       53.18       84.82       
H           -29.37      53.77       89.22       
H           -28.52      50.07       86.08       
H           -32.55      54.84       87.83       
H           -31.16      54.92       88.84       
H           -31.02937   54.92709    87.08523    
H           -32.0       51.26       89.27       
H           -31.93      52.8        90.16       
H           -33.36066   52.30338    89.06417    
H           -34.01      48.56       82.07       
H           -34.65      48.98       83.7        
H           -33.08549   48.21937    83.57561    
H           -31.23      49.79       82.3        
H           -32.35      49.6        80.99       
H           -31.71829   51.26515    81.34272    
H           -26.51      53.29       89.98       
H           -37.26      51.11       79.89       
S           -25.94      50.67       87.64       
C           -26.6       52.52       89.29       
C           -25.5       51.81       88.9        
C           -42.3       52.32       78.75       
C           -42.28      52.9        80.03       
C           -41.09      51.78       78.39       
N           -43.35      53.4        80.6        
N           -41.29      53.56       81.99       
S           -42.89      53.88       82.09       
H           -38.97      51.6        78.74       
H           -41.03      51.3        77.45       
C           -39.94      51.91       79.18       
C           -41.07      53.01       80.85       
C           -39.84      52.39       80.49       
C           -55.79      45.54       71.83       
C           -55.19      45.13       72.95       
S           -55.01      47.01       71.25       
C           -50.48      47.9        75.55       
C           -50.87      48.34       74.34       
C           -50.22      49.43       73.72       
C           -49.0       49.91       74.27       
C           -48.63      49.42       75.54       
C           -49.34      48.37       76.19       
C           -48.06      50.99       73.75       
C           -46.98      50.97       74.87       
C           -47.4       50.1        75.9        
C           -51.36      46.76       76.02       
C           -52.27      46.58       74.83       
C           -52.06      47.66       73.94       
C           -45.77      51.63       74.93       
C           -45.08      51.59       76.18       
C           -45.61      50.81       77.23       
C           -46.73      50.0        77.05       
C           -53.34      45.74       74.61       
C           -54.14      46.01       73.49       
C           -53.84      46.98       72.57       
C           -52.81      47.89       72.81       
C           -47.38      50.58       72.43       
C           -48.81      52.31       73.61       
C           -50.6       45.43       76.14       
C           -52.19      47.2        77.21       
H           -49.0       47.89       77.08       
H           -50.53      49.74       72.76       
H           -53.6       44.96       75.3        
H           -52.66      48.74       72.13       
H           -45.31      52.11       74.08       
H           -47.13      49.41       77.85       
H           -47.98      50.82       71.49       
H           -46.44      51.13       72.27       
H           -47.26667   49.49628    72.45833    
H           -49.27      52.56       74.63       
H           -48.03      53.0        73.34       
H           -49.58619   52.38121    72.84805    
H           -53.15      46.79       77.21       
H           -52.31      48.3        77.2        
H           -51.75616   46.98308    78.18613    
H           -49.89      45.55       76.91       
H           -51.23      44.55       76.4        
H           -50.03368   45.209      75.23527    
H           -43.16      52.86       76.12       
H           -55.48      44.23       73.49       
S           -44.61      50.91       78.7        
C           -43.84      52.25       76.69       
C           -43.52      51.98       77.95       
C           -59.29      43.77       69.69       
C           -58.59      43.02       70.7        
C           -58.73      44.93       69.48       
N           -58.93      41.78       71.08       
N           -57.07      42.77       72.39       
S           -58.02      41.42       72.37       
H           -57.31      46.51       69.77       
H           -59.05      45.51       68.62       
C           -57.63      45.56       70.14       
C           -57.48      43.58       71.39       
C           -56.9       44.87       71.07       
C           -72.68      38.88       61.27       
C           -71.86      37.94       61.78       
S           -72.13      40.5        61.61       
C           -66.79      39.62       64.87       
C           -67.59      40.71       64.29       
C           -67.19      42.04       64.42       
C           -66.02      42.34       65.09       
C           -65.16      41.29       65.55       
C           -65.52      39.95       65.38       
C           -65.33      43.64       65.26       
C           -64.11      43.19       66.07       
C           -63.99      41.81       66.21       
C           -67.3       38.26       64.36       
C           -68.69      38.72       63.72       
C           -68.73      40.2        63.65       
C           -63.1       44.03       66.5        
C           -62.13      43.5        67.31       
C           -62.07      42.09       67.52       
C           -62.99      41.2        66.89       
C           -69.63      37.88       63.14       
C           -70.72      38.5        62.52       
C           -70.72      39.94       62.49       
C           -69.75      40.79       62.97       
C           -64.9       44.35       63.96       
C           -66.09      44.57       66.24       
C           -66.34      37.69       63.37       
C           -67.53      37.34       65.54       
H           -64.8       39.19       65.6        
H           -67.78      42.81       63.93       
H           -69.55      36.75       63.19       
H           -69.84      41.89       62.77       
H           -63.22      45.14       66.32       
H           -62.85      40.13       66.87       
H           -65.82      44.68       63.46       
H           -64.28      45.16       64.16       
H           -64.40907   43.70966    63.22716    
H           -65.79      44.15       67.23       
H           -65.62      45.58       66.21       
H           -67.17812   44.57707    66.17641    
H           -67.91      36.47       65.13       
H           -68.2       37.69       66.33       
H           -66.6444    37.0141     66.08553    
H           -65.47      37.34       63.86       
H           -66.75      36.83       62.89       
H           -66.01258   38.40753    62.61764    
H           -60.82      45.22       67.67       
H           -72.02      36.9        61.58       
S           -60.78      41.64       68.68       
C           -60.96      44.11       67.84       
C           -60.31      43.37       68.79       
C           -76.19      38.63       58.67       
C           -75.79      37.45       59.39       
C           -75.54      39.78       58.97       
N           -76.4       36.23       59.47       
N           -74.4       36.35       61.0        
S           -75.61      35.34       60.63       
H           -73.86      40.8        59.86       
H           -75.73      40.72       58.37       
C           -74.36      39.83       59.77       
C           -74.68      37.53       60.33       
C           -73.91      38.74       60.48       
C           -87.01      38.94       46.07       
C           -86.14      37.92       46.33       
S           -86.98      40.0        47.5        
C           -82.63      37.51       51.35       
C           -83.54      38.59       51.36       
C           -83.5       39.6        52.34       
C           -82.55      39.56       53.3        
C           -81.63      38.45       53.34       
C           -81.65      37.45       52.35       
C           -82.25      40.57       54.42       
C           -81.14      39.87       55.18       
C           -80.86      38.6        54.5        
C           -82.98      36.5        50.22       
C           -84.0       37.34       49.45       
C           -84.35      38.52       50.15       
C           -80.28      40.31       56.19       
C           -79.12      39.52       56.6        
C           -78.98      38.23       55.92       
C           -79.85      37.71       54.95       
C           -84.6       37.0        48.27       
C           -85.52      37.89       47.66       
C           -85.79      39.07       48.36       
C           -85.31      39.34       49.6        
C           -81.79      41.88       53.75       
C           -83.47      40.83       55.29       
C           -81.64      36.33       49.44       
C           -83.54      35.13       50.77       
H           -80.89      36.67       52.35       
H           -84.24      40.42       52.26       
H           -84.27      36.1        47.77       
H           -85.67      40.17       50.14       
H           -80.57      41.2        56.7        
H           -79.7       36.7        54.49       
H           -82.02      42.75       54.37       
H           -82.34      42.13       52.84       
H           -80.74243   41.85802    53.44965    
H           -84.18      41.36       54.7        
H           -83.18      41.42       56.14       
H           -83.94131   39.88035    55.54324    
H           -82.72      34.38       50.69       
H           -84.33      34.74       50.13       
H           -83.99666   35.20366    51.75698    
H           -80.83      36.06       50.13       
H           -81.73      35.43       48.73       
H           -81.3073    37.22193    48.90909    
H           -78.01      40.75       58.14       
H           -85.81      37.22       45.57       
S           -77.61      37.47       56.61       
C           -78.09      39.8        57.56       
C           -77.33      38.72       57.81       
C           -87.88      40.59       42.03       
C           -88.84      40.43       43.05       
C           -86.63      40.06       42.38       
N           -90.15      40.69       42.87       
N           -89.68      39.89       45.13       
S           -91.05      40.36       44.25       
H           -85.38      39.09       43.99       
H           -85.85      39.92       41.57       
C           -86.39      39.48       43.71       
C           -88.62      39.9        44.36       
C           -87.33      39.41       44.76       
H           34.59       81.66       63.26       
H           -88.14      41.18       41.13       
