612

C           47.99       70.47       6.68        
C           48.36       69.27       7.14        
S           48.65       71.72       7.77        
C           50.9        68.27       12.52       
C           50.74       69.61       12.21       
C           51.22       70.56       13.07       
C           51.76       70.19       14.25       
C           51.92       68.8        14.65       
C           51.4        67.86       13.73       
C           52.58       71.02       15.27       
C           53.09       69.95       16.32       
C           52.66       68.64       15.93       
C           50.64       67.34       11.3        
C           50.02       68.37       10.3        
C           50.15       69.68       10.83       
C           53.93       70.06       17.4        
C           54.42       68.93       18.08       
C           53.94       67.66       17.67       
C           53.04       67.52       16.59       
C           49.38       68.15       9.12        
C           48.9        69.25       8.45        
C           49.15       70.51       8.92        
C           49.79       70.83       10.13       
C           53.84       71.73       14.7        
C           51.76       72.11       16.06       
C           51.98       66.76       10.71       
C           49.57       66.28       11.68       
H           51.46       66.81       14.01       
H           51.2        71.59       12.72       
H           49.42       67.28       8.62        
H           50.02       71.79       10.45       
H           54.09       71.04       17.86       
H           52.8        66.51       16.34       
H           54.42       71.99       15.61       
H           53.52       72.54       14.06       
H           54.44866    71.16699    13.99243    
H           50.75       71.68       16.29       
H           52.38       72.4        16.97       
H           51.4327     73.00652    15.53347    
H           48.69       66.43       11.04       
H           49.21       66.31       12.68       
H           49.81406    65.25495    11.40107    
H           52.42       66.07       11.43       
H           51.72       66.18       9.82        
H           52.66877    67.53142    10.36561    
H           55.8        69.74       19.65       
H           48.13       68.39       6.59        
S           54.69       66.43       18.76       
C           55.28       68.88       19.23       
C           55.5        67.62       19.75       
C           46.78       71.8        2.7         
C           46.09       72.27       3.83        
C           47.69       70.78       2.99        
N           44.98       73.04       3.83        
N           45.55       72.34       6.13        
S           44.38       73.16       5.34        
H           48.79       69.72       4.38        
H           48.28       70.37       2.16        
C           47.96       70.31       4.26        
C           46.38       71.81       5.22        
C           47.45       70.81       5.43        
C           42.43       76.01       -12.8       
C           43.28       74.99       -12.49      
S           42.26       77.05       -11.4       
C           45.35       73.59       -6.99       
C           44.55       74.76       -7.08       
C           44.1        75.5        -5.95       
C           44.38       74.96       -4.74       
C           45.11       73.71       -4.63       
C           45.65       73.03       -5.74       
C           43.91       75.41       -3.33       
C           44.57       74.41       -2.44       
C           45.24       73.38       -3.2        
C           45.37       72.93       -8.4        
C           44.68       73.99       -9.24       
C           44.18       75.0        -8.5        
C           44.56       74.38       -1.12       
C           45.44       73.48       -0.45       
C           46.16       72.45       -1.17       
C           46.05       72.44       -2.52       
C           44.43       73.92       -10.59      
C           43.65       74.94       -11.15      
C           43.15       75.97       -10.35      
C           43.32       76.02       -8.98       
C           44.33       76.82       -3.0        
C           42.35       75.29       -3.02       
C           46.82       72.85       -8.84       
C           44.8        71.48       -8.37       
H           46.25       72.18       -5.54       
H           43.54       76.43       -6.07       
H           44.82       73.15       -11.26      
H           43.01       76.85       -8.35       
H           43.86       74.95       -0.53       
H           46.68       71.68       -3.1        
H           43.76       77.46       -3.63       
H           44.12       77.02       -1.94       
H           45.37145    77.04002    -3.23469    
H           42.01       74.26       -3.19       
H           42.13       75.47       -1.96       
H           41.74143    75.80764    -3.76148    
H           45.37       70.88       -7.65       
H           44.75       71.07       -9.39       
H           43.78423    71.43096    -7.9777     
H           47.35       72.09       -8.26       
H           46.9        72.43       -9.87       
H           47.39088    73.77854    -8.84       
H           45.14       73.84       1.7         
H           43.65       74.25       -13.22      
S           47.17       71.5        -0.09       
C           45.67       73.24       0.95        
C           46.51       72.26       1.36        
C           39.21       75.89       -15.93      
C           39.41       77.07       -15.04      
C           40.09       74.88       -15.66      
N           38.53       78.01       -14.98      
N           40.35       78.3        -13.36      
S           39.04       79.12       -13.87      
H           41.72       74.08       -14.56      
H           40.0        74.02       -16.4       
C           41.14       74.97       -14.67      
C           40.47       77.14       -14.09      
C           41.42       76.09       -13.88      
C           24.53       70.02       -21.21      
C           25.6        69.59       -21.9       
S           24.87       71.58       -20.34      
C           31.17       71.67       -20.16      
C           30.09       72.55       -19.84      
C           30.26       73.77       -19.19      
C           31.61       74.18       -18.97      
C           32.65       73.26       -19.21      
C           32.48       71.95       -19.69      
C           32.0        75.4        -18.17      
C           33.52       75.3        -18.38      
C           33.96       73.96       -18.79      
C           30.62       70.31       -20.71      
C           29.17       70.69       -21.02      
C           28.89       71.92       -20.37      
C           34.55       76.19       -17.93      
C           35.85       75.7        -17.66      
C           36.21       74.38       -18.02      
C           35.25       73.51       -18.67      
C           28.21       69.98       -21.66      
C           26.83       70.25       -21.47      
C           26.57       71.42       -20.7       
C           27.62       72.27       -20.25      
C           31.51       76.7        -18.88      
C           31.54       75.28       -16.72      
C           31.39       70.0        -22.01      
C           30.71       69.32       -19.58      
H           33.25       71.24       -19.83      
H           29.37       74.43       -18.87      
H           28.63       69.16       -22.3       
H           27.32       73.17       -19.78      
H           34.35       77.21       -17.69      
H           35.57       72.52       -19.07      
H           30.43       76.72       -18.69      
H           31.95       77.55       -18.36      
H           31.83795    76.81862    -19.9127    
H           31.83       74.28       -16.37      
H           32.12       75.94       -16.16      
H           30.47624    75.44096    -16.54504   
H           31.74       69.22       -19.21      
H           30.21       69.64       -18.65      
H           30.38253    68.30847    -19.82015   
H           32.45       69.81       -21.72      
H           31.0        69.1        -22.5       
H           31.29675    70.86794    -22.66275   
H           36.84       77.38       -16.72      
H           25.63       68.7        -22.57      
S           37.8        74.03       -17.41      
C           36.93       76.4        -17.1       
C           38.01       75.65       -16.79      
C           20.22       68.64       -21.12      
C           21.2        68.23       -22.19      
C           20.77       69.66       -20.35      
N           20.91       67.27       -23.17      
N           23.22       68.17       -23.28      
S           22.24       67.12       -24.09      
H           22.43       70.82       -19.67      
H           20.13       70.26       -19.69      
C           22.19       70.01       -20.37      
C           22.52       68.76       -22.31      
C           23.09       69.61       -21.32      
C           4.3         71.47       -24.69      
C           5.15        72.27       -24.0       
S           5.23        70.31       -25.65      
C           10.88       71.01       -22.75      
C           10.28       70.14       -23.71      
C           10.96       68.98       -24.17      
C           12.28       68.72       -23.71      
C           12.81       69.54       -22.66      
C           12.1        70.66       -22.23      
C           13.24       67.62       -24.15      
C           14.37       67.83       -23.07      
C           14.05       68.92       -22.23      
C           9.96        72.07       -22.27      
C           8.68        71.75       -23.01      
C           8.91        70.67       -23.93      
C           15.73       67.3        -23.01      
C           16.66       67.92       -22.19      
C           16.24       68.93       -21.31      
C           14.95       69.41       -21.3       
C           7.5         72.41       -23.13      
C           6.51        71.93       -23.98      
C           6.71        70.8        -24.83      
C           7.96        70.18       -24.85      
C           12.61       66.19       -24.01      
C           13.87       67.94       -25.54      
C           9.91        72.05       -20.74      
C           10.53       73.42       -22.75      
H           12.47       71.22       -21.39      
H           10.53       68.27       -24.91      
H           7.34        73.34       -22.57      
H           8.2         69.39       -25.52      
H           16.12       66.54       -23.73      
H           14.65       70.26       -20.67      
H           11.59       66.1        -24.34      
H           13.17       65.43       -24.58      
H           12.5808     65.85421    -22.97342   
H           14.59       68.76       -25.48      
H           14.35       67.04       -25.86      
H           13.17483    68.3293     -26.28383   
H           11.46       73.59       -22.17      
H           9.89        74.24       -22.43      
H           10.68512    73.4341     -23.82881   
H           10.89       72.42       -20.27      
H           9.78        71.01       -20.46      
H           9.10672     72.68115    -20.35988   
H           18.59       66.8        -22.56      
H           4.74        73.0        -23.31      
S           17.66       69.56       -20.46      
C           18.12       67.59       -22.04      
C           18.78       68.42       -21.21      
C           -0.05       71.32       -24.24      
C           0.67        72.57       -24.19      
C           0.76        70.28       -24.61      
N           0.12        73.73       -23.85      
N           2.54        73.95       -24.22      
S           1.26        74.93       -23.77      
H           2.65        69.45       -25.18      
H           0.25        69.35       -24.72      
C           2.16        70.4        -24.95      
C           2.08        72.69       -24.42      
C           2.85        71.58       -24.8       
C           -13.98      66.64       -16.64      
C           -13.99      67.34       -17.86      
S           -12.43      66.86       -15.9       
C           -8.94       69.16       -20.5       
C           -8.75       68.84       -19.15      
C           -7.55       68.91       -18.58      
C           -6.44       69.44       -19.31      
C           -6.61       69.7        -20.68      
C           -7.85       69.48       -21.32      
C           -5.05       69.81       -18.82      
C           -4.43       70.34       -20.15      
C           -5.28       69.95       -21.23      
C           -10.4       68.93       -21.03      
C           -11.05      68.66       -19.68      
C           -10.06      68.46       -18.63      
C           -3.16       70.75       -20.29      
C           -2.67       70.78       -21.61      
C           -3.47       70.36       -22.73      
C           -4.79       69.91       -22.55      
C           -12.39      68.32       -19.47      
C           -12.75      67.88       -18.26      
C           -11.77      67.75       -17.25      
C           -10.44      68.02       -17.39      
C           -5.03       71.02       -17.83      
C           -4.29       68.59       -18.26      
C           -11.06      70.09       -21.83      
C           -10.45      67.6        -21.81      
H           -7.83       69.55       -22.4       
H           -7.59       68.88       -17.47      
H           -13.13      68.38       -20.22      
H           -9.71       67.89       -16.63      
H           -2.55       71.01       -19.51      
H           -5.48       69.77       -23.37      
H           -5.27       70.72       -16.78      
H           -3.99       71.25       -17.69      
H           -5.67153    71.84482    -18.14019   
H           -4.42       67.79       -18.97      
H           -3.24       68.85       -18.26      
H           -4.61983    68.23085    -17.28516   
H           -11.46      67.24       -21.81      
H           -9.9        66.84       -21.24      
H           -10.07869   67.66305    -22.83286   
H           -10.39      70.31       -22.7       
H           -12.1       69.83       -22.03      
H           -10.99768   71.03865    -21.29682   
H           -0.54       71.46       -21.57      
H           -14.84      67.39       -18.53      
S           -2.67       70.57       -24.26      
C           -1.44       71.26       -22.15      
C           -1.21       71.02       -23.47      
C           -17.0       64.34       -14.4       
C           -17.45      65.36       -15.31      
C           -15.61      64.26       -14.17      
N           -18.75      65.66       -15.61      
N           -17.1       66.91       -16.96      
S           -18.73      66.83       -16.75      
H           -13.65      64.99       -14.59      
H           -15.24      63.52       -13.46      
C           -14.68      65.12       -14.89      
C           -16.47      66.08       -16.12      
C           -15.06      66.0        -15.92      
C           -26.16      51.15       -11.79      
C           -24.84      51.11       -11.45      
S           -26.69      52.76       -11.91      
C           -21.23      55.9        -10.96      
C           -22.59      56.14       -11.13      
C           -23.07      57.41       -10.99      
C           -22.2       58.51       -11.13      
C           -20.83      58.32       -11.27      
C           -20.31      56.98       -11.14      
C           -22.54      59.93       -11.5       
C           -21.19      60.59       -11.81      
C           -20.18      59.61       -11.62      
C           -20.92      54.41       -10.99      
C           -22.38      53.9        -11.21      
C           -23.34      54.93       -11.25      
C           -20.89      61.81       -12.3       
C           -19.65      62.23       -12.65      
C           -18.62      61.22       -12.43      
C           -18.8       59.98       -11.84      
C           -22.79      52.58       -11.25      
C           -24.14      52.34       -11.36      
C           -25.05      53.39       -11.58      
C           -24.68      54.72       -11.46      
C           -23.57      59.86       -12.7       
C           -23.08      60.61       -10.21      
C           -20.02      54.22       -12.26      
C           -20.3       53.88       -9.64       
H           -19.25      56.84       -11.25      
H           -24.17      57.55       -10.95      
H           -22.1       51.81       -11.07      
H           -25.41      55.54       -11.56      
H           -21.71      62.5        -12.41      
H           -17.89      59.28       -11.79      
H           -24.54      59.48       -12.23      
H           -23.28      59.08       -13.41      
H           -23.79757   60.77028    -13.2547    
H           -24.11      60.33       -10.06      
H           -23.09      61.74       -10.24      
H           -22.54885   60.27265    -9.31996    
H           -19.74      52.89       -9.78       
H           -21.22      53.72       -8.99       
H           -19.59405   54.55771    -9.15995    
H           -19.06      54.74       -12.26      
H           -20.54      54.7        -13.1       
H           -19.7043    53.20273    -12.49152   
H           -19.87      64.08       -13.79      
H           -24.37      50.18       -11.37      
S           -17.12      61.83       -13.09      
C           -19.16      63.37       -13.39      
C           -17.82      63.41       -13.61      
C           -29.11      48.06       -13.09      
C           -28.07      47.79       -12.13      
C           -29.0       49.35       -13.64      
N           -28.01      46.68       -11.35      
N           -26.21      48.3        -10.79      
S           -26.53      46.66       -10.64      
H           -28.05      51.22       -13.8       
H           -29.62      49.62       -14.45      
C           -28.07      50.27       -13.22      
C           -27.09      48.77       -11.67      
C           -27.16      50.14       -12.15      
C           -40.03      38.96       -21.16      
C           -39.81      40.29       -21.31      
S           -39.31      38.41       -19.63      
C           -37.02      43.77       -17.48      
C           -36.92      42.44       -17.16      
C           -36.02      41.96       -16.23      
C           -34.94      42.75       -15.8       
C           -34.98      44.09       -16.13      
C           -36.02      44.61       -16.96      
C           -33.89      42.38       -14.76      
C           -33.27      43.77       -14.62      
C           -33.86      44.75       -15.46      
C           -38.0       44.06       -18.58      
C           -38.5       42.71       -18.9       
C           -37.87      41.77       -18.0       
C           -32.15      44.09       -13.89      
C           -31.59      45.36       -13.91      
C           -32.24      46.39       -14.69      
C           -33.31      46.06       -15.48      
C           -39.34      42.34       -19.9       
C           -39.37      40.99       -20.14      
C           -38.87      40.08       -19.24      
C           -38.12      40.4        -18.18      
C           -34.52      41.82       -13.47      
C           -32.72      41.5        -15.33      
C           -39.1       44.99       -18.06      
C           -37.32      44.67       -19.87      
H           -36.19      45.65       -17.09      
H           -36.09      40.89       -16.09      
H           -39.71      43.04       -20.63      
H           -37.65      39.66       -17.54      
H           -31.56      43.32       -13.35      
H           -33.74      46.93       -16.12      
H           -35.34      41.18       -13.64      
H           -33.85      41.21       -12.86      
H           -34.87575   42.60976    -12.80831   
H           -32.06      42.13       -15.9       
H           -32.1       41.15       -14.46      
H           -33.11105   40.66396    -15.90984   
H           -38.04      44.53       -20.64      
H           -36.54      44.07       -20.19      
H           -36.9997    45.71096    -19.82632   
H           -39.65      45.32       -18.99      
H           -38.71      45.93       -17.63      
H           -39.71229   44.50162    -17.30192   
H           -29.85      45.38       -12.53      
H           -40.21      40.79       -22.15      
S           -31.55      47.98       -14.33      
C           -30.46      45.89       -13.27      
C           -30.17      47.2        -13.56      
C           -39.76      36.02       -24.24      
C           -40.52      35.79       -23.1       
C           -39.27      37.25       -24.4       
N           -41.18      34.65       -22.81      
N           -41.49      36.29       -21.06      
S           -42.02      34.83       -21.43      
H           -38.84      39.22       -23.5       
H           -38.76      37.61       -25.35      
C           -39.35      38.21       -23.36      
C           -40.69      36.76       -22.08      
C           -40.04      37.99       -22.17      
C           -37.29      26.14       -37.51      
C           -37.09      27.5        -37.51      
S           -37.99      25.65       -35.93      
C           -38.1       31.19       -32.66      
C           -38.27      29.82       -32.48      
C           -38.68      29.32       -31.23      
C           -38.9       30.22       -30.2       
C           -38.59      31.59       -30.32      
C           -38.3       32.09       -31.6       
C           -39.56      29.93       -28.89      
C           -39.26      31.21       -28.12      
C           -38.79      32.2        -29.04      
C           -37.53      31.41       -34.11      
C           -37.53      29.98       -34.69      
C           -38.02      29.06       -33.69      
C           -39.61      31.55       -26.79      
C           -39.34      32.93       -26.38      
C           -38.91      33.85       -27.38      
C           -38.59      33.46       -28.66      
C           -37.18      29.5        -35.96      
C           -37.34      28.15       -36.25      
C           -37.88      27.26       -35.24      
C           -38.23      27.74       -33.98      
C           -41.06      29.74       -29.27      
C           -39.06      28.68       -28.11      
C           -38.52      32.38       -34.81      
C           -36.14      31.99       -34.03      
H           -38.0       33.09       -31.81      
H           -38.99      28.24       -30.99      
H           -37.02      30.1        -36.79      
H           -38.44      27.02       -33.25      
H           -39.86      30.79       -26.01      
H           -38.35      34.17       -29.43      
H           -41.43      28.82       -28.83      
H           -41.13      29.54       -30.35      
H           -41.70928   30.59587    -29.08555   
H           -39.08      27.88       -28.85      
H           -39.79      28.44       -27.32      
H           -38.02983   28.70176    -27.75452   
H           -36.19      33.03       -33.68      
H           -35.61      31.95       -34.98      
H           -35.51514   31.50482    -33.28017   
H           -38.5       33.47       -34.44      
H           -39.52      32.07       -34.61      
H           -38.45      32.457      -35.89502   
H           -40.11      33.06       -24.28      
H           -36.66      28.04       -38.32      
S           -38.72      35.42       -26.67      
C           -39.63      33.57       -25.12      
C           -39.45      34.94       -25.19      
C           -36.7       23.27       -40.8       
C           -37.14      24.56       -41.0       
C           -36.44      23.07       -39.44      
N           -37.2       25.19       -42.18      
N           -37.66      26.77       -40.47      
S           -37.8       26.72       -42.09      
H           -36.55      23.55       -37.35      
H           -36.03      22.17       -39.19      
C           -36.69      23.95       -38.32      
C           -37.38      25.54       -39.98      
C           -37.15      25.19       -38.58      
C           -31.39      11.09       -50.77      
C           -31.29      11.11       -49.38      
S           -32.24      12.52       -51.34      
C           -33.79      15.47       -45.92      
C           -34.02      15.63       -47.3       
C           -34.78      16.66       -47.78      
C           -35.19      17.66       -46.95      
C           -34.94      17.51       -45.6       
C           -34.25      16.43       -45.06      
C           -36.05      18.91       -47.19      
C           -35.85      19.7        -45.86      
C           -35.26      18.77       -44.96      
C           -33.07      14.11       -45.58      
C           -32.86      13.58       -47.02      
C           -33.35      14.53       -47.97      
C           -36.28      20.99       -45.4       
C           -36.05      21.25       -44.0       
C           -35.61      20.24       -43.13      
C           -35.12      19.05       -43.61      
C           -32.24      12.45       -47.5       
C           -32.11      12.19       -48.83      
C           -32.65      13.08       -49.75      
C           -33.35      14.25       -49.38      
C           -35.51      19.63       -48.46      
C           -37.57      18.58       -47.31      
C           -31.65      14.47       -45.04      
C           -33.82      13.02       -44.77      
H           -34.07      16.42       -43.98      
H           -34.94      16.7        -48.9       
H           -31.61      11.89       -46.81      
H           -33.74      14.87       -50.15      
H           -36.73      21.67       -46.13      
H           -34.83      18.32       -42.92      
H           -35.56      19.02       -49.34      
H           -34.42      19.74       -48.38      
H           -35.97168   20.58833    -48.69783   
H           -37.71      18.0        -46.3       
H           -38.18      19.52       -47.28      
H           -37.83021   17.99453    -48.19182   
H           -33.14      12.18       -44.85      
H           -34.78      12.76       -45.22      
H           -34.03974   13.28227    -43.73509   
H           -31.81      15.14       -44.17      
H           -31.17      13.54       -44.64      
H           -31.01636   14.94523    -45.78884   
H           -36.97      23.22       -43.78      
H           -30.71      10.43       -48.79      
S           -35.68      20.81       -41.44      
C           -36.51      22.39       -43.26      
C           -36.4       22.38       -41.91      
C           -29.03      8.89        -53.89      
C           -28.82      8.63        -52.54      
C           -30.02      9.84        -54.11      
N           -28.05      7.74        -52.0       
N           -29.32      8.99        -50.3       
S           -28.19      7.76        -50.33      
H           -31.29      11.4        -53.55      
H           -30.39      10.06       -55.1       
C           -30.67      10.61       -53.06      
C           -29.64      9.38        -51.53      
C           -30.6       10.34       -51.77      
C           -30.05      -0.68       -66.76      
C           -30.06      0.69        -66.84      
S           -29.48      -1.24       -65.17      
C           -28.27      4.37        -62.33      
C           -28.24      3.03        -62.06      
C           -27.79      2.6         -60.79      
C           -27.44      3.44        -59.83      
C           -27.64      4.83        -60.1       
C           -28.08      5.3         -61.29      
C           -27.11      3.19        -58.35      
C           -27.06      4.66        -57.85      
C           -27.49      5.52        -58.84      
C           -28.89      4.63        -63.72      
C           -29.23      3.2         -64.14      
C           -28.68      2.22        -63.23      
C           -26.92      5.12        -56.53      
C           -27.44      6.38        -56.24      
C           -27.85      7.23        -57.28      
C           -27.81      6.86        -58.6       
C           -29.66      2.75        -65.36      
C           -29.66      1.36        -65.63      
C           -29.36      0.43        -64.61      
C           -28.79      0.86        -63.44      
C           -28.3       2.56        -57.63      
C           -25.77      2.46        -58.18      
C           -30.15      5.57        -63.55      
C           -27.88      5.17        -64.72      
H           -28.13      6.41        -61.38      
H           -27.76      1.61        -60.52      
H           -30.15      3.4         -66.1       
H           -28.34      0.12        -62.82      
H           -26.63      4.43        -55.75      
H           -28.27      7.52        -59.38      
H           -28.33      1.48        -57.72      
H           -28.19      2.67        -56.55      
H           -29.26652   3.02839     -57.81587   
H           -24.91      3.02        -58.53      
H           -25.61      2.16        -57.14      
H           -25.80588   1.4339      -58.54595   
H           -28.48      5.33        -65.61      
H           -27.08      4.41        -64.73      
H           -27.39023   6.10056     -64.43314   
H           -30.42      6.06        -64.49      
H           -29.99      6.34        -62.79      
H           -31.04983   5.05278     -63.21699   
H           -27.58      6.34        -54.15      
H           -30.46      1.17        -67.68      
S           -28.52      8.73        -56.57      
C           -27.8       6.92        -55.01      
C           -28.43      8.04        -54.95      
C           -31.57      -3.61       -69.68      
C           -31.32      -2.32       -70.07      
C           -31.39      -3.88       -68.37      
N           -31.48      -1.85       -71.34      
N           -30.91      -0.1        -69.7       
S           -31.31      -0.2        -71.28      
H           -30.55      -3.34       -66.47      
H           -31.62      -4.89       -68.01      
C           -30.72      -2.97       -67.46      
C           -30.87      -1.32       -69.13      
C           -30.48      -1.62       -67.78      
H           56.24       67.43       20.57       
H           -32.13      -4.39       -70.25      
