612

C           66.36       66.74       0.56        
C           65.2        66.02       0.25        
S           67.62       65.63       0.94        
C           64.56       60.15       1.7         
C           65.85       60.7        1.82        
C           66.87       60.02       2.55        
C           66.59       58.76       2.97        
C           65.34       58.16       2.69        
C           64.32       58.87       2.07        
C           67.54       57.85       3.77        
C           66.7        56.54       3.64        
C           65.37       56.77       3.14        
C           63.62       61.18       1.15        
C           64.51       62.34       0.82        
C           65.83       62.03       1.34        
C           66.94       55.24       4.02        
C           65.98       54.17       4.07        
C           64.73       54.43       3.5         
C           64.42       55.7        2.98        
C           64.19       63.57       0.31        
C           65.2        64.61       0.51        
C           66.49       64.24       0.99        
C           66.82       62.93       1.31        
C           68.94       57.76       3.17        
C           67.55       58.33       5.25        
C           62.88       60.82       -0.19       
C           62.6        61.53       2.27        
H           63.42       58.41       1.89        
H           67.9        60.42       2.58        
H           63.19       63.8        -0.05       
H           67.74       62.68       1.74        
H           67.93       54.94       4.49        
H           63.46       55.92       2.53        
H           69.52       57.22       3.88        
H           69.5        58.66       3.17        
H           68.90402    57.32826    2.1698      
H           66.55       58.19       5.63        
H           68.11       57.72       5.92        
H           67.87926    59.35356    5.42894     
H           61.93       60.64       2.48        
H           61.99       62.3        1.84        
H           63.12073    61.98653    3.11173     
H           62.11       60.09       0.06        
H           62.33       61.62       -0.67       
H           63.58837    60.42724    -0.91941    
H           66.84       52.41       5.13        
H           64.28       66.55       -0.12       
S           63.8        52.96       3.41        
C           66.05       52.81       4.64        
C           64.87       52.02       4.44        
C           67.05       71.14       0.28        
C           68.05       70.27       0.83        
C           65.93       70.43       -0.15       
N           69.2        70.64       1.37        
N           68.96       68.19       1.57        
S           70.07       69.33       1.86        
H           64.82       68.71       -0.28       
H           65.23       70.87       -0.82       
C           65.79       69.02       0.01        
C           67.95       68.81       0.98        
C           66.71       68.16       0.53        
C           63.15       87.06       -0.34       
C           62.37       85.98       -0.34       
S           64.85       86.5        -0.58       
C           64.33       80.25       -0.31       
C           65.39       81.17       -0.42       
C           66.73       80.75       -0.39       
C           67.03       79.37       -0.34       
C           65.94       78.48       -0.14       
C           64.61       78.95       -0.19       
C           68.3        78.6        -0.5        
C           67.75       77.13       -0.33       
C           66.36       77.14       -0.07       
C           62.96       80.89       -0.22       
C           63.34       82.28       -0.39       
C           64.73       82.49       -0.43       
C           68.45       75.96       -0.2        
C           67.76       74.73       0.02        
C           66.33       74.8        0.2         
C           65.61       75.99       0.13        
C           62.5        83.34       -0.33       
C           63.02       84.68       -0.43       
C           64.41       84.8        -0.55       
C           65.3        83.74       -0.5        
C           68.89       78.8        -1.92       
C           69.31       78.83       0.69        
C           62.09       80.46       -1.43       
C           62.21       80.75       1.15        
H           63.74       78.25       -0.11       
H           67.5        81.41       -0.52       
H           61.39       83.13       -0.31       
H           66.36       83.97       -0.66       
H           69.44       75.9        -0.68       
H           64.51       76.04       0.23        
H           69.19       79.85       -1.99       
H           69.81       78.3        -1.89       
H           68.24866    78.45018    -2.72896    
H           68.75       78.7        1.65        
H           70.11       78.05       0.88        
H           69.72325    79.8386     0.697       
H           61.29       81.33       1.18        
H           62.8        81.13       1.87        
H           61.95098    79.73492    1.45102     
H           61.83       79.4        -1.41       
H           61.23       81.15       -1.33       
H           62.57308    80.64746    -2.38895    
H           69.14       73.04       -0.14       
H           61.28       86.09       -0.18       
S           65.49       73.29       0.19        
C           68.15       73.37       -0.0        
C           67.09       72.57       0.14        
C           62.29       91.42       0.04        
C           61.24       90.42       0.01        
C           63.53       90.85       -0.03       
N           59.94       90.74       0.17        
N           60.28       88.29       -0.28       
S           59.09       89.4        -0.21       
H           64.84       89.22       -0.25       
H           64.38       91.53       -0.08       
C           63.79       89.46       -0.13       
C           61.44       88.99       -0.07       
C           62.82       88.52       -0.19       
C           58.15       107.2       -2.92       
C           57.35       106.22      -3.43       
S           59.34       106.6       -1.79       
C           58.41       100.34      -1.99       
C           59.15       101.33      -1.27       
C           60.2        100.95      -0.43       
C           60.41       99.59       -0.22       
C           59.8        98.61       -1.03       
C           58.84       98.99       -1.99       
C           61.46       98.99       0.74        
C           61.33       97.47       0.42        
C           60.38       97.32       -0.65       
C           57.28       101.01      -2.8        
C           57.57       102.51      -2.56       
C           58.65       102.63      -1.65       
C           61.88       96.38       1.02        
C           61.76       95.1        0.44        
C           61.02       95.01       -0.77       
C           60.25       96.08       -1.29       
C           56.94       103.63      -3.09       
C           57.62       104.91      -2.84       
C           58.71       104.95      -1.93       
C           59.13       103.85      -1.23       
C           62.92       99.6        0.53        
C           61.05       99.23       2.26        
C           57.48       100.68      -4.29       
C           55.81       100.69      -2.35       
H           58.67       98.24       -2.75       
H           60.74       101.62      0.24        
H           56.06       103.59      -3.67       
H           59.98       103.89      -0.6        
H           62.39       96.52       2.0         
H           59.51       95.9        -2.18       
H           63.48       99.83       1.42        
H           62.82       100.56      0.08        
H           63.55178    98.97565    -0.10178    
H           61.38       100.19      2.59        
H           61.66       98.55       2.82        
H           59.98435    99.11633    2.45892     
H           55.58       99.75       -2.91       
H           55.1        101.44      -2.64       
H           55.68943    100.58361   -1.27193    
H           57.15       99.67       -4.46       
H           56.86       101.28      -4.97       
H           58.50602    100.82152   -4.62965    
H           62.92       93.63       1.61        
H           56.52       106.43      -4.03       
S           60.91       93.31       -1.33       
C           62.31       93.86       0.77        
C           61.95       92.83       -0.02       
C           59.05       111.34      -3.73       
C           58.5        110.54      -4.79       
C           58.87       110.84      -2.47       
N           58.34       110.9       -6.11       
N           57.67       108.54      -5.66       
S           57.84       109.59      -6.96       
H           58.55       109.08      -1.17       
H           59.23       111.5       -1.74       
C           58.44       109.46      -2.23       
C           58.04       109.17      -4.53       
C           58.21       108.57      -3.22       
C           64.59       126.62      -3.86       
C           64.75       125.79      -2.79       
S           64.35       125.66      -5.28       
C           63.8        119.83      -3.11       
C           63.6        120.52      -4.37       
C           63.36       119.82      -5.54       
C           63.11       118.48      -5.48       
C           63.13       117.82      -4.2        
C           63.54       118.47      -3.03       
C           62.46       117.57      -6.56       
C           62.1        116.31      -5.75       
C           62.51       116.52      -4.38       
C           64.29       120.73      -1.96       
C           64.13       122.05      -2.69       
C           63.8        121.92      -4.07       
C           61.2        115.3       -6.04       
C           60.82       114.44      -5.05       
C           61.3        114.61      -3.75       
C           62.18       115.61      -3.4        
C           64.32       123.35      -2.18       
C           64.42       124.38      -3.04       
C           64.04       124.21      -4.35       
C           63.76       122.99      -4.94       
C           61.22       118.12      -7.21       
C           63.52       117.1       -7.61       
C           63.36       120.68      -0.69       
C           65.79       120.62      -1.58       
H           63.5        117.96      -2.06       
H           63.48       120.35      -6.48       
H           64.51       123.48      -1.13       
H           63.72       122.85      -6.04       
H           60.78       115.16      -7.06       
H           62.49       115.71      -2.37       
H           60.66       117.26      -7.62       
H           61.54       118.72      -8.09       
H           60.5441     118.69523   -6.57725    
H           64.11       116.37      -7.09       
H           63.06       116.5       -8.43       
H           64.18992    117.85195   -8.02699    
H           66.08       121.34      -0.87       
H           66.43       120.77      -2.42       
H           66.12315    119.67016   -1.16178    
H           63.03       119.75      -0.42       
H           63.97       121.09      0.17        
H           62.52497    121.37106   -0.80518    
H           59.4        113.07      -6.03       
H           65.1        126.08      -1.79       
S           60.66       113.39      -2.67       
C           59.89       113.35      -5.1        
C           59.62       112.68      -3.92       
C           66.63       130.36      -4.76       
C           65.49       130.01      -5.52       
C           66.9        129.55      -3.73       
N           65.02       130.74      -6.59       
N           63.79       128.56      -6.23       
S           63.75       129.85      -7.2        
H           66.4        127.9       -2.6        
H           67.79       129.72      -3.15       
C           66.1        128.5       -3.38       
C           64.75       128.81      -5.3        
C           65.08       128.01      -4.12       
C           79.07       135.26      -14.35      
C           79.07       134.47      -13.22      
S           77.57       136.19      -14.35      
C           74.48       133.36      -9.44       
C           74.16       134.4       -10.38      
C           72.89       135.04      -10.37      
C           71.98       134.57      -9.43       
C           72.28       133.53      -8.6        
C           73.52       132.95      -8.53       
C           70.46       134.86      -9.4        
C           70.13       134.17      -8.07       
C           71.12       133.21      -7.81       
C           75.9        132.82      -9.68       
C           76.34       133.65      -10.9       
C           75.36       134.63      -11.27      
C           68.8        134.0       -7.63       
C           68.63       132.99      -6.61       
C           69.77       132.12      -6.27       
C           70.98       132.27      -6.87       
C           77.49       133.53      -11.55      
C           77.87       134.43      -12.48      
C           76.9        135.36      -12.95      
C           75.64       135.48      -12.3       
C           70.19       136.41      -9.33       
C           69.61       134.14      -10.46      
C           76.72       133.18      -8.45       
C           76.04       131.32      -9.95       
H           73.68       132.25      -7.74       
H           72.5        135.79      -11.07      
H           78.23       132.79      -11.23      
H           74.97       136.24      -12.58      
H           67.99       134.75      -7.75       
H           71.71       131.56      -6.68       
H           70.23       136.88      -10.33      
H           69.13       136.51      -9.13       
H           70.75314    136.91611   -8.54589    
H           69.61       133.04      -10.25      
H           68.54       134.43      -10.42      
H           69.95537    134.24073   -11.48892   
H           75.95       130.68      -9.04       
H           77.08       131.18      -10.22      
H           75.4304     130.93014   -10.76516   
H           76.4        132.67      -7.6        
H           77.75       132.83      -8.65       
H           76.78402    134.24699   -8.2366     
H           66.45       132.91      -6.21       
H           79.81       133.69      -13.01      
S           69.3        131.0       -5.03       
C           67.41       132.5       -5.97       
C           67.6        131.34      -5.22       
C           81.11       134.89      -18.26      
C           81.59       134.23      -17.12      
C           80.17       135.8       -17.98      
N           82.47       133.23      -17.07      
N           81.49       133.53      -14.9       
S           82.45       132.42      -15.67      
H           78.69       136.53      -16.65      
H           79.77       136.43      -18.78      
C           79.61       135.98      -16.69      
C           81.03       134.39      -15.82      
C           79.97       135.3       -15.57      
C           84.16       132.87      -34.53      
C           83.39       133.93      -33.99      
S           84.49       131.74      -33.24      
C           81.86       134.27      -28.06      
C           82.54       133.17      -28.44      
C           82.93       132.18      -27.49      
C           82.72       132.38      -26.1       
C           82.06       133.61      -25.8       
C           81.53       134.52      -26.78      
C           83.08       131.65      -24.86      
C           82.52       132.54      -23.8       
C           81.94       133.71      -24.37      
C           81.33       135.12      -29.31      
C           82.13       134.36      -30.36      
C           82.71       133.2       -29.91      
C           82.53       132.41      -22.38      
C           82.1        133.47      -21.58      
C           81.52       134.63      -22.18      
C           81.4        134.73      -23.57      
C           82.25       134.62      -31.74      
C           82.96       133.79      -32.59      
C           83.46       132.56      -32.07      
C           83.39       132.31      -30.71      
C           82.23       130.3       -24.79      
C           84.56       131.26      -24.62      
C           79.76       135.11      -29.44      
C           81.91       136.52      -28.99      
H           80.87       135.29      -26.57      
H           83.32       131.18      -27.78      
H           81.76       135.42      -32.17      
H           83.82       131.45      -30.26      
H           82.87       131.52      -21.93      
H           81.06       135.62      -24.08      
H           82.44       129.61      -25.67      
H           82.46       129.73      -23.85      
H           81.15112    130.45104   -24.75404   
H           85.12       132.19      -24.69      
H           84.68       130.82      -23.64      
H           84.97071    130.57084   -25.35789   
H           81.41       136.85      -28.08      
H           82.99       136.51      -28.83      
H           81.77714    137.24333   -29.79452   
H           79.38       135.87      -30.12      
H           79.24       135.37      -28.51      
H           79.36341    134.13654   -29.72843   
H           82.32       132.83      -19.5       
H           83.1        134.85      -34.58      
S           80.95       135.73      -20.93      
C           82.07       133.63      -20.2       
C           81.46       134.63      -19.67      
C           86.96       132.52      -37.94      
C           86.33       131.44      -37.25      
C           86.4        133.74      -37.48      
N           86.52       130.15      -37.64      
N           84.97       130.25      -35.84      
S           85.61       129.09      -36.74      
H           85.12       134.83      -36.13      
H           86.89       134.65      -37.83      
C           85.39       133.87      -36.41      
C           85.34       131.54      -36.21      
C           84.92       132.82      -35.74      
C           90.66       132.97      -53.08      
C           90.67       133.98      -52.18      
S           90.71       131.45      -52.09      
C           91.21       133.64      -46.23      
C           91.44       132.38      -46.82      
C           91.58       131.21      -46.06      
C           91.53       131.33      -44.69      
C           91.19       132.53      -44.11      
C           91.21       133.72      -44.88      
C           91.21       130.17      -43.68      
C           90.8        130.99      -42.45      
C           90.88       132.35      -42.7       
C           91.22       134.81      -47.22      
C           91.15       134.02      -48.5       
C           91.21       132.67      -48.24      
C           90.26       130.52      -41.31      
C           89.56       131.42      -40.51      
C           89.62       132.79      -40.8       
C           90.44       133.3       -41.83      
C           90.95       134.53      -49.74      
C           90.92       133.64      -50.8       
C           91.12       132.28      -50.62      
C           91.06       131.7       -49.34      
C           90.14       129.24      -44.25      
C           92.46       129.39      -43.2       
C           90.0        135.63      -46.88      
C           92.58       135.56      -46.94      
H           91.25       134.69      -44.31      
H           91.83       130.3       -46.61      
H           90.93       135.64      -49.98      
H           90.88       130.64      -49.23      
H           90.23       129.49      -41.03      
H           90.34       134.36      -42.13      
H           90.35       128.94      -45.3       
H           89.75       128.37      -43.67      
H           89.21377    129.78443   -44.43383   
H           93.06       130.07      -42.58      
H           92.24       128.51      -42.66      
H           93.07211    129.07034   -44.04335   
H           92.67       135.81      -45.89      
H           93.38       134.81      -47.07      
H           92.73665    136.40022   -47.61645   
H           90.07       136.59      -47.48      
H           90.14       135.95      -45.8       
H           89.04979    135.10526   -46.97928   
H           88.41       130.28      -38.97      
H           90.56       135.0       -52.56      
S           88.62       133.76      -39.72      
C           88.64       131.19      -39.41      
C           88.04       132.33      -38.92      
C           89.43       132.75      -57.35      
C           88.74       133.7       -56.45      
C           90.45       132.03      -56.77      
N           87.68       134.41      -56.77      
N           88.46       134.84      -54.39      
S           87.34       135.46      -55.45      
H           91.65       131.59      -55.07      
H           91.09       131.36      -57.4       
C           90.77       132.13      -55.4       
C           89.13       133.81      -55.05      
C           90.19       132.94      -54.48      
C           83.48       128.18      -72.03      
C           84.23       127.35      -71.29      
S           83.95       129.8       -71.57      
C           87.13       129.17      -66.22      
C           86.59       130.12      -67.06      
C           86.54       131.46      -66.68      
C           86.9        131.85      -65.34      
C           87.41       130.81      -64.47      
C           87.51       129.52      -64.9       
C           86.67       133.15      -64.51      
C           87.4        132.79      -63.18      
C           87.74       131.44      -63.19      
C           86.69       127.79      -66.76      
C           86.37       128.17      -68.22      
C           86.19       129.58      -68.32      
C           87.57       133.57      -62.04      
C           88.24       132.99      -60.91      
C           88.68       131.68      -60.99      
C           88.42       130.88      -62.08      
C           85.81       127.36      -69.23      
C           85.11       127.97      -70.24      
C           85.03       129.35      -70.29      
C           85.59       130.18      -69.41      
C           87.17       134.46      -65.07      
C           85.13       133.35      -64.17      
C           87.82       126.67      -66.67      
C           85.33       127.31      -66.16      
H           87.9        128.73      -64.27      
H           86.08       132.2       -67.32      
H           85.93       126.26      -69.21      
H           85.42       131.2       -69.38      
H           87.39       134.62      -61.96      
H           88.72       129.89      -61.98      
H           86.55       134.77      -65.9       
H           86.95       135.26      -64.38      
H           88.20648    134.39384   -65.40079   
H           84.77       132.9       -63.24      
H           84.95       134.39      -64.04      
H           84.42415    133.03551   -64.93875   
H           85.08       126.37      -66.59      
H           84.51       128.03      -66.2       
H           85.36367    127.04735   -65.10265   
H           88.26       126.53      -65.71      
H           87.31       125.67      -66.79      
H           88.65483    126.82971   -67.35238   
H           88.28       134.58      -59.34      
H           84.24       126.25      -71.34      
S           89.48       131.1       -59.61      
C           88.52       133.52      -59.59      
C           89.11       132.64      -58.75      
C           79.92       127.63      -74.62      
C           80.5        126.53      -73.93      
C           80.59       128.77      -74.46      
N           79.99       125.33      -73.87      
N           81.95       125.52      -72.45      
S           80.86       124.38      -72.86      
H           82.3        129.93      -73.83      
H           80.22       129.55      -75.12      
C           81.83       128.97      -73.72      
C           81.63       126.72      -73.03      
C           82.36       127.94      -72.97      
C           66.96       127.58      -85.06      
C           67.91       126.68      -85.11      
S           67.17       128.68      -83.66      
C           72.07       126.15      -80.65      
C           71.28       127.26      -80.58      
C           71.56       128.19      -79.55      
C           72.73       128.12      -78.84      
C           73.57       126.99      -78.96      
C           73.24       125.98      -79.81      
C           73.47       129.26      -78.16      
C           74.74       128.48      -77.74      
C           74.72       127.14      -78.11      
C           71.73       125.3       -81.83      
C           70.54       126.02      -82.46      
C           70.31       127.18      -81.67      
C           75.74       128.97      -77.02      
C           76.75       128.1       -76.52      
C           76.79       126.77      -76.96      
C           75.81       126.3       -77.75      
C           69.83       125.8       -83.63      
C           68.82       126.68      -84.02      
C           68.53       127.75      -83.14      
C           69.19       128.01      -81.96      
C           73.71       130.36      -79.25      
C           72.67       129.88      -76.94      
C           73.01       125.23      -82.73      
C           71.36       123.9       -81.28      
H           73.78       125.03      -79.84      
H           70.98       129.04      -79.65      
H           70.07       124.95      -84.32      
H           68.88       128.88      -81.34      
H           75.86       130.0       -76.73      
H           75.85       125.28      -78.09      
H           73.75       131.26      -78.65      
H           72.88       130.66      -79.95      
H           74.57849    130.22249   -79.89413   
H           71.62       129.99      -77.28      
H           73.06       130.87      -76.8       
H           72.75114    129.34581   -75.99334   
H           72.23       123.34      -80.97      
H           70.75       123.29      -81.96      
H           70.82406    123.9696    -80.33341   
H           73.82       124.92      -82.14      
H           72.88       124.45      -83.44      
H           73.28911    126.18306   -83.1793    
H           78.03       129.44      -75.34      
H           67.85       125.99      -85.91      
S           78.21       125.95      -76.27      
C           77.85       128.44      -75.7       
C           78.63       127.43      -75.41      
C           63.23       128.4       -87.5       
C           64.29       127.64      -88.01      
C           63.45       128.83      -86.22      
N           64.28       127.27      -89.29      
N           66.25       126.48      -88.01      
S           65.57       126.29      -89.48      
H           64.81       129.04      -84.55      
H           62.75       129.54      -85.82      
C           64.65       128.56      -85.52      
C           65.5        127.32      -87.29      
C           65.77       127.86      -85.98      
C           48.24       128.01      -94.03      
C           48.55       128.25      -92.71      
S           49.64       128.39      -95.01      
C           53.97       129.43      -90.5       
C           53.88       129.43      -91.9       
C           55.04       129.47      -92.69      
C           56.29       129.57      -92.03      
C           56.33       129.5       -90.65      
C           55.22       129.48      -89.89      
C           57.67       129.37      -92.61      
C           58.5        129.31      -91.4       
C           57.77       129.59      -90.25      
C           52.63       129.48      -89.9       
C           51.75       129.15      -91.14      
C           52.51       129.17      -92.34      
C           59.8        129.0       -91.25      
C           60.38       129.01      -90.0       
C           59.62       129.41      -88.87      
C           58.24       129.64      -88.95      
C           50.42       128.85      -91.15      
C           49.87       128.57      -92.41      
C           50.59       128.61      -93.6       
C           51.97       128.87      -93.6       
C           57.75       128.15      -93.53      
C           58.21       130.67      -93.39      
C           52.43       128.41      -88.87      
C           52.14       130.91      -89.44      
H           55.26       129.71      -88.84      
H           54.9        129.48      -93.74      
H           49.88       128.65      -90.19      
H           52.6        128.89      -94.45      
H           60.39       128.8       -92.09      
H           57.64       129.73      -88.11      
H           57.31       128.32      -94.55      
H           58.82       127.91      -93.87      
H           57.31198    127.26005   -93.07807   
H           58.36       131.5       -92.66      
H           59.12       130.49      -93.9       
H           57.51032    131.02345   -94.14738   
H           51.91       130.86      -88.36      
H           51.28       131.07      -90.05      
H           52.83885    131.73133   -89.5985    
H           53.21       128.6       -88.18      
H           51.53       128.47      -88.24      
H           52.60996    127.39948   -89.23683   
H           62.58       128.57      -90.31      
H           47.8        128.08      -91.93      
S           60.51       129.04      -87.38      
C           61.72       128.79      -89.59      
C           62.0        128.79      -88.24      
C           44.94       125.89      -96.12      
C           44.89       126.32      -94.78      
C           46.12       126.26      -96.74      
N           43.77       126.1       -94.0       
N           45.65       127.28      -92.73      
S           44.18       126.6       -92.46      
H           48.09       127.16      -96.64      
H           46.33       125.99      -97.71      
C           47.18       126.96      -96.05      
C           45.95       126.96      -94.01      
C           47.12       127.38      -94.71      
H           64.72       50.96       4.62        
H           44.02       125.77      -96.63      
