612

C           11.34       8.32        47.45       
C           11.72       7.44        46.43       
S           11.35       7.56        49.0        
C           12.94       1.53        47.79       
C           12.77       2.35        48.92       
C           12.96       1.84        50.18       
C           13.4        0.54        50.36       
C           13.43       -0.27       49.18       
C           13.28       0.19        47.9        
C           13.69       -0.25       51.64       
C           14.06       -1.59       50.99       
C           13.86       -1.61       49.59       
C           13.05       2.33        46.48       
C           12.71       3.76        47.05       
C           12.44       3.71        48.46       
C           14.69       -2.66       51.63       
C           15.02       -3.72       50.88       
C           14.83       -3.79       49.48       
C           14.22       -2.72       48.84       
C           12.49       4.94        46.33       
C           11.98       6.11        47.02       
C           11.78       6.03        48.4        
C           12.06       4.88        49.11       
C           14.94       0.41        52.35       
C           12.48       -0.31       52.59       
C           14.52       2.28        45.91       
C           12.02       1.96        45.37       
H           13.49       -0.42       47.05       
H           12.55       2.46        50.99       
H           12.58       4.95        45.26       
H           11.97       4.92        50.17       
H           14.97       -2.66       52.69       
H           14.16       -2.73       47.72       
H           15.08       0.19        53.41       
H           14.81       1.52        52.35       
H           15.83128    0.30218     51.73186    
H           11.83       0.61        52.53       
H           12.89       -0.31       53.57       
H           11.7819     -1.13899    52.47365    
H           12.23       2.7         44.65       
H           11.06       2.08        45.71       
H           12.16292    0.98097     44.91264    
H           14.94       1.26        45.84       
H           14.45       2.79        44.95       
H           15.1586     2.88272     46.55577    
H           15.82       -5.13       52.45       
H           11.85       7.67        45.38       
S           15.57       -5.21       48.81       
C           15.67       -4.89       51.39       
C           16.05       -5.79       50.45       
C           9.93        12.44       46.6        
C           10.25       12.02       47.93       
C           10.1        11.45       45.65       
N           10.06       12.88       48.98       
N           10.76       10.6        49.58       
S           10.49       12.05       50.37       
H           10.61       9.45        45.13       
H           9.78        11.59       44.67       
C           10.47       10.1        46.02       
C           10.75       10.75       48.24       
C           10.94       9.71        47.22       
C           1.13        24.87       40.17       
C           2.1         24.1        39.54       
S           1.02        24.39       41.86       
C           6.09        20.43       42.4        
C           5.14        20.98       43.26       
C           5.08        20.63       44.62       
C           5.92        19.6        45.0        
C           6.8         18.96       44.13       
C           7.0         19.42       42.85       
C           5.71        18.73       46.23       
C           6.86        17.74       46.03       
C           7.44        17.82       44.76       
C           5.85        20.93       40.97       
C           4.69        21.84       41.13       
C           4.23        21.89       42.5        
C           7.14        16.6        46.83       
C           8.04        15.6        46.35       
C           8.57        15.74       45.04       
C           8.32        16.8        44.24       
C           4.02        22.44       40.13       
C           2.86        23.18       40.36       
C           2.42        23.29       41.72       
C           3.07        22.59       42.79       
C           5.82        19.67       47.5        
C           4.43        17.86       46.26       
C           7.02        21.76       40.31       
C           5.29        19.78       40.0        
H           7.71        19.01       42.17       
H           4.37        21.02       45.44       
H           4.35        22.43       39.08       
H           2.69        22.66       43.8        
H           6.55        16.33       47.73       
H           8.86        16.94       43.34       
H           5.18        19.29       48.22       
H           5.41        20.69       47.2        
H           6.82994     19.73183    47.90535    
H           3.62        18.49       46.5        
H           4.49        17.08       47.08       
H           4.16877     17.41011    45.30216    
H           5.97        18.91       40.02       
H           5.01        20.07       39.02       
H           4.36707     19.32927    40.36488    
H           7.86        21.08       40.09       
H           6.67        22.36       39.47       
H           7.42556     22.52766    40.96903    
H           8.05        14.11       48.02       
H           2.26        24.09       38.42       
S           9.62        14.37       44.66       
C           8.44        14.44       47.05       
C           9.31        13.66       46.29       
C           -0.91       28.52       38.9        
C           -0.47       27.55       37.9        
C           -0.98       27.96       40.15       
N           -0.41       27.7        36.6        
N           0.67        25.58       37.24       
S           0.22        26.35       35.89       
H           -0.45       26.49       41.64       
H           -1.34       28.65       40.91       
C           -0.37       26.76       40.58       
C           0.27        26.35       38.32       
C           0.37        26.01       39.7        
C           0.61        44.52       35.24       
C           0.72        44.0        36.46       
S           0.12        43.31       34.11       
C           -0.89       38.17       37.92       
C           -1.02       38.51       36.52       
C           -1.45       37.47       35.59       
C           -1.65       36.19       36.09       
C           -1.56       35.95       37.49       
C           -1.24       36.96       38.43       
C           -1.66       34.89       35.36       
C           -2.04       33.95       36.49       
C           -1.78       34.5        37.78       
C           -0.28       39.41       38.66       
C           -0.24       40.48       37.58       
C           -0.56       39.89       36.33       
C           -2.25       32.57       36.35       
C           -1.94       31.79       37.48       
C           -1.77       32.37       38.77       
C           -1.67       33.69       38.92       
C           0.29        41.76       37.71       
C           0.32        42.6        36.58       
C           -0.02       42.0        35.32       
C           -0.43       40.62       35.19       
C           -2.68       34.73       34.23       
C           -0.28       34.41       34.81       
C           -1.12       39.9        39.86       
C           1.24        39.09       39.03       
H           -1.1        36.79       39.48       
H           -1.64       37.6        34.57       
H           0.51        42.22       38.72       
H           -0.63       40.15       34.26       
H           -2.5        32.04       35.41       
H           -1.45       34.16       39.89       
H           -2.44       35.49       33.39       
H           -2.48       33.75       33.8        
H           -3.73459    34.7719     34.50238    
H           0.44        34.25       35.65       
H           -0.33       33.54       34.22       
H           0.23099     35.13998    34.18221    
H           1.29        38.39       39.87       
H           1.63        40.07       39.32       
H           1.82819     38.62937    38.2363     
H           -0.93       39.15       40.67       
H           -0.73       40.82       40.22       
H           -2.19047    39.90733    39.6547     
H           -1.89       29.75       36.55       
H           1.02        44.59       37.36       
S           -1.3        31.06       39.96       
C           -1.7        30.38       37.47       
C           -1.4        29.88       38.67       
C           3.11        47.55       33.3        
C           1.88        47.07       32.67       
C           3.34        46.97       34.51       
N           1.49        47.45       31.47       
N           -0.33       46.22       32.83       
S           -0.1        46.92       31.34       
H           2.82        45.57       36.11       
H           4.38        47.05       34.96       
C           2.43        46.11       35.24       
C           0.89        46.25       33.43       
C           1.18        45.75       34.76       
C           17.18       51.52       25.86       
C           16.35       50.49       25.56       
S           16.34       52.53       27.06       
C           10.87       49.43       27.93       
C           11.5        50.6        28.36       
C           10.93       51.41       29.34       
C           9.81        50.99       30.02       
C           9.24        49.79       29.62       
C           9.71        49.0        28.56       
C           9.03        51.64       31.16       
C           7.91        50.61       31.38       
C           7.99        49.54       30.44       
C           11.66       48.87       26.73       
C           12.89       49.7        26.77       
C           12.72       50.79       27.63       
C           6.94        50.54       32.33       
C           6.04        49.47       32.21       
C           6.16        48.5        31.16       
C           7.19        48.43       30.26       
C           14.05       49.54       26.06       
C           15.13       50.39       26.28       
C           14.88       51.47       27.16       
C           13.7        51.68       27.82       
C           9.91        51.77       32.43       
C           8.35        52.93       30.7        
C           12.1        47.37       26.95       
C           10.75       49.08       25.48       
H           9.17        48.16       28.12       
H           11.35       52.36       29.59       
H           14.07       48.77       25.28       
H           13.56       52.5        28.54       
H           6.93        51.27       33.11       
H           7.23        47.72       29.42       
H           10.87       52.15       32.23       
H           10.12       50.79       32.86       
H           9.50717     52.37424    33.24285    
H           9.11        53.62       30.36       
H           7.83        53.31       31.58       
H           7.65312     52.72166    29.88818    
H           9.8         48.57       25.57       
H           10.59       50.17       25.38       
H           11.19072    48.86675    24.50615    
H           12.56       46.97       26.11       
H           11.2        46.73       27.11       
H           12.75811    47.26763    27.81285    
H           4.63        49.74       33.91       
H           16.58       49.76       24.83       
S           4.87        47.33       31.32       
C           4.91        49.18       33.03       
C           4.15        48.2        32.58       
C           21.22       52.7        24.48       
C           20.42       51.75       23.79       
C           20.69       53.2        25.54       
N           20.71       51.32       22.57       
N           18.45       50.58       23.37       
S           19.46       50.34       22.07       
H           18.98       53.28       26.84       
H           21.11       53.97       26.16       
C           19.36       52.76       26.02       
C           19.12       51.39       24.21       
C           18.55       51.84       25.42       
C           34.2        62.17       20.35       
C           33.8        61.96       21.61       
S           33.17       61.3        19.25       
C           29.48       58.0        23.07       
C           29.67       58.09       21.72       
C           28.87       57.46       20.75       
C           27.96       56.53       21.21       
C           27.69       56.42       22.61       
C           28.54       57.11       23.54       
C           26.77       55.96       20.51       
C           26.02       55.13       21.61       
C           26.51       55.6        22.85       
C           30.38       58.89       23.95       
C           31.09       59.56       22.79       
C           30.69       59.11       21.56       
C           24.91       54.38       21.56       
C           24.18       54.09       22.72       
C           24.78       54.43       23.94       
C           25.93       55.24       24.03       
C           32.15       60.44       22.94       
C           32.78       60.95       21.78       
C           32.34       60.47       20.56       
C           31.35       59.47       20.42       
C           25.75       57.02       19.94       
C           27.15       54.93       19.39       
C           29.57       59.96       24.75       
C           31.47       58.11       24.74       
H           28.33       57.01       24.61       
H           29.12       57.54       19.7        
H           32.51       60.75       23.93       
H           31.04       59.1        19.46       
H           24.54       54.16       20.57       
H           26.45       55.53       24.93       
H           26.06       57.16       18.91       
H           24.71       56.67       19.86       
H           25.67868    57.99708    20.41784    
H           27.84       54.23       19.89       
H           26.29       54.33       19.06       
H           27.72451    55.3107     18.54554    
H           32.11       58.83       25.29       
H           32.15       57.55       24.14       
H           31.13867    57.44735    25.53951    
H           28.88       59.56       25.46       
H           30.12       60.67       25.34       
H           28.97669    60.66185    24.16392    
H           22.51       52.88       21.96       
H           34.14       62.46       22.5        
S           23.6        54.01       25.2        
C           22.99       53.33       22.81       
C           22.48       53.28       24.01       
C           36.19       65.86       19.07       
C           36.13       64.72       18.21       
C           35.56       65.65       20.31       
N           36.51       64.74       16.97       
N           35.58       62.56       17.59       
S           36.16       63.3        16.26       
H           34.6        64.39       21.74       
H           35.52       66.43       21.02       
C           34.98       64.46       20.76       
C           35.55       63.48       18.55       
C           34.99       63.31       19.93       
C           36.68       82.02       16.81       
C           37.14       81.51       17.95       
S           36.65       80.74       15.6        
C           38.19       75.54       18.79       
C           37.9        75.94       17.43       
C           37.82       75.04       16.34       
C           37.9        73.72       16.57       
C           38.02       73.26       17.9        
C           38.17       74.17       18.99       
C           37.6        72.57       15.67       
C           37.67       71.36       16.61       
C           37.92       71.79       17.96       
C           38.3        76.76       19.73       
C           37.87       77.91       18.83       
C           37.76       77.39       17.5        
C           37.43       70.01       16.38       
C           37.28       69.09       17.43       
C           37.41       69.6        18.68       
C           37.71       70.94       19.0        
C           37.75       79.25       19.02       
C           37.28       80.06       17.99       
C           37.06       79.48       16.71       
C           37.32       78.15       16.44       
C           36.16       72.54       15.09       
C           38.71       72.24       14.64       
C           37.37       76.77       20.97       
C           39.73       76.91       20.21       
H           38.35       73.8        19.99       
H           37.68       75.38       15.33       
H           37.94       79.74       19.96       
H           37.04       77.72       15.49       
H           37.15       69.72       15.32       
H           37.58       71.35       20.01       
H           36.25       73.46       14.51       
H           36.1        71.68       14.4        
H           35.39748    72.66003    15.85958    
H           39.63       72.03       15.21       
H           38.48       71.33       14.07       
H           38.86469    73.06723    13.94728    
H           39.83       76.48       21.2        
H           39.89       77.88       20.31       
H           40.53365    76.50818    19.59292    
H           37.4        77.81       21.28       
H           37.74       76.2        21.77       
H           36.33725    76.50278    20.74612    
H           36.84       67.19       16.53       
H           37.44       82.12       18.79       
S           36.9        68.32       19.82       
C           36.89       67.71       17.47       
C           36.64       67.15       18.64       
C           37.12       85.85       14.76       
C           37.32       85.71       16.17       
C           36.48       84.81       14.2        
N           37.73       86.7        17.02       
N           37.62       84.49       18.08       
S           38.13       86.04       18.44       
H           35.79       82.83       14.31       
H           36.06       84.98       13.18       
C           36.29       83.64       14.85       
C           37.22       84.44       16.85       
C           36.69       83.3        16.16       
C           43.72       96.99       4.76        
C           43.68       95.65       4.41        
S           42.65       97.44       6.11        
C           40.49       91.83       7.77        
C           40.35       93.17       8.14        
C           39.83       93.57       9.39        
C           39.32       92.54       10.23       
C           39.44       91.22       9.83        
C           40.06       90.81       8.64        
C           38.63       92.64       11.63       
C           38.57       91.16       11.89       
C           38.82       90.36       10.75       
C           41.17       91.63       6.42        
C           41.45       93.13       6.07        
C           40.97       94.01       7.11        
C           38.15       90.59       13.05       
C           38.0        89.21       13.13       
C           38.17       88.39       11.97       
C           38.54       88.98       10.75       
C           42.33       93.64       5.09        
C           42.71       95.0        5.15        
C           42.04       95.82       6.17        
C           41.13       95.38       7.08        
C           39.55       93.39       12.56       
C           37.24       93.18       11.66       
C           42.48       90.84       6.52        
C           40.09       91.03       5.5         
H           40.2        89.76       8.4         
H           39.58       94.66       9.64        
H           42.86       93.01       4.33        
H           40.76       96.11       7.84        
H           37.97       91.2        13.93       
H           38.67       88.45       9.85        
H           39.9        94.23       12.06       
H           38.96       93.72       13.41       
H           40.38415    92.75547    12.85944    
H           36.65       92.67       10.91       
H           36.83       93.0        12.66       
H           37.07369    94.2502     11.53707    
H           40.06       89.98       5.79        
H           39.07       91.43       5.65        
H           40.34199    90.99294    4.44017     
H           42.87       90.81       5.47        
H           42.31       89.76       6.69        
H           43.17261    91.21079    7.27558     
H           37.32       88.82       15.17       
H           44.27       95.28       3.57        
S           37.82       86.73       12.24       
C           37.52       88.37       14.18       
C           37.48       87.0        13.98       
C           47.11       99.64       3.95        
C           45.8        100.28      4.03        
C           47.19       98.32       4.0         
N           45.47       101.54      3.9         
N           43.62       100.08      4.45        
S           43.87       101.66      4.19        
H           46.15       96.46       4.45        
H           48.22       97.92       3.88        
C           46.08       97.52       4.25        
C           44.72       99.39       4.26        
C           44.78       97.95       4.39        
C           61.09       107.55      0.54        
C           59.88       108.17      0.45        
S           60.94       106.13      1.53        
C           54.57       105.96      2.61        
C           55.76       105.22      2.88        
C           55.76       103.95      3.43        
C           54.55       103.36      3.71        
C           53.45       104.04      3.27        
C           53.35       105.37      2.73        
C           54.31       101.93      4.11        
C           52.86       101.89      3.79        
C           52.32       103.16      3.47        
C           54.97       107.24      1.84        
C           56.51       107.16      1.81        
C           56.96       105.93      2.43        
C           52.05       100.83      4.07        
C           50.63       101.02      3.83        
C           50.14       102.28      3.45        
C           50.97       103.39      3.31        
C           57.45       107.99      1.33        
C           58.78       107.55      1.2         
C           59.2        106.38      1.82        
C           58.28       105.57      2.41        
C           55.05       100.89      3.19        
C           54.46       101.66      5.64        
C           54.36       107.29      0.4         
C           54.53       108.5       2.66        
H           52.41       105.85      2.5         
H           56.73       103.63      3.74        
H           57.06       108.98      0.77        
H           58.61       104.66      2.89        
H           52.45       99.84       4.22        
H           50.58       104.38      3.06        
H           56.14       100.9       3.55        
H           54.66       99.86       3.42        
H           54.96265    101.22483   2.15639     
H           53.73       102.26      6.2         
H           54.09       100.67      5.95        
H           55.49783    101.72398   5.96699     
H           55.11       109.25      2.17        
H           54.84       108.47      3.74        
H           53.49454    108.8223    2.55028     
H           54.17       108.3       0.22        
H           53.44       106.78      0.55        
H           54.94213    106.72916   -0.33122    
H           49.79       99.07       4.46        
H           59.72       109.06      -0.07       
S           48.39       102.14      3.3         
C           49.57       100.08      4.08        
C           48.31       100.46      3.83        
C           64.62       107.23      -2.13       
C           63.45       108.0       -2.49       
C           64.57       106.65      -0.87       
N           63.24       108.61      -3.69       
N           61.25       108.56      -2.25       
S           61.71       109.1       -3.69       
H           63.46       106.42      0.94        
H           65.44       106.13      -0.4        
C           63.45       106.93      -0.01       
C           62.32       108.01      -1.67       
C           62.27       107.51      -0.36       
C           76.55       100.69      -11.59      
C           76.74       100.84      -10.26      
S           74.97       101.26      -12.06      
C           72.47       103.27      -6.67       
C           72.11       103.11      -8.08       
C           70.88       103.65      -8.52       
C           70.13       104.44      -7.68       
C           70.4        104.43      -6.26       
C           71.6        103.82      -5.74       
C           69.06       105.45      -8.02       
C           68.55       105.78      -6.6        
C           69.35       105.22      -5.59       
C           73.97       103.0       -6.51       
C           74.24       102.29      -7.81       
C           73.16       102.37      -8.71       
C           67.37       106.4       -6.34       
C           66.98       106.52      -5.01       
C           67.87       106.11      -4.02       
C           69.12       105.44      -4.22       
C           75.48       101.79      -8.19       
C           75.6        101.37      -9.54       
C           74.51       101.6       -10.38      
C           73.21       101.89      -10.02      
C           69.76       106.67      -8.65       
C           67.9        104.92      -8.94       
C           74.78       104.27      -6.18       
C           74.35       101.95      -5.43       
H           71.75       103.89      -4.68       
H           70.57       103.55      -9.55       
H           76.32       101.85      -7.57       
H           72.43       102.17      -10.76      
H           66.75       106.77      -7.11       
H           69.7        105.07      -3.33       
H           70.34       106.49      -9.55       
H           70.55       106.89      -7.95       
H           69.18884    107.59813   -8.67142    
H           68.14       104.9       -9.99       
H           67.0        105.54      -8.87       
H           67.57001    103.90895   -8.70128    
H           74.39       102.47      -4.43       
H           75.36       101.49      -5.71       
H           73.65202    101.1153    -5.36524    
H           75.57       104.06      -5.46       
H           74.26       105.06      -5.68       
H           75.151      104.74285   -7.08932    
H           64.98       107.53      -5.1        
H           77.61       100.5       -9.68       
S           67.17       106.38      -2.42       
C           65.75       107.07      -4.42       
C           65.66       106.95      -3.03       
C           79.23       99.77       -14.96      
C           79.78       100.02      -13.72      
C           77.84       99.6        -14.95      
N           81.09       100.28      -13.49      
N           79.64       100.93      -11.53      
S           81.24       100.86      -11.95      
H           75.99       99.64       -13.96      
H           77.37       99.41       -15.85      
C           77.07       99.7        -13.77      
C           78.93       100.34      -12.55      
C           77.52       100.29      -12.58      
C           87.0        101.83      -29.58      
C           86.7        100.7       -29.03      
S           86.44       103.15      -28.61      
C           83.77       99.99       -23.8       
C           84.03       101.35      -24.14      
C           83.69       102.38      -23.13      
C           83.01       102.1       -21.98      
C           82.8        100.72      -21.72      
C           83.16       99.7        -22.56      
C           82.29       103.04      -20.94      
C           81.98       101.96      -19.89      
C           82.1        100.7       -20.42      
C           84.45       98.96       -24.74      
C           84.97       99.99       -25.83      
C           84.78       101.29      -25.37      
C           81.4        102.18      -18.68      
C           80.92       101.12      -17.93      
C           81.08       99.81       -18.46      
C           81.66       99.54       -19.69      
C           85.57       99.71       -27.02      
C           86.03       100.79      -27.77      
C           85.86       102.07      -27.38      
C           85.2        102.38      -26.13      
C           83.23       104.09      -20.41      
C           81.0        103.7       -21.4       
C           85.8        98.29       -24.06      
C           83.54       97.86       -25.26      
H           82.86       98.64       -22.32      
H           83.92       103.44      -23.34      
H           85.78       98.72       -27.43      
H           85.01       103.36      -25.73      
H           81.24       103.19      -18.38      
H           81.72       98.55       -20.08      
H           83.22       105.0       -21.02      
H           82.85       104.34      -19.4       
H           84.25017    103.74525   -20.24114   
H           80.22       102.97      -21.24      
H           80.67       104.57      -20.82      
H           80.93642    103.97553   -22.45268   
H           83.6        97.01       -24.57      
H           83.91       97.61       -26.28      
H           82.53818    98.27625    -25.36583   
H           85.67       97.87       -23.06      
H           86.47       99.14       -24.06      
H           86.29403    97.57801    -24.72113   
H           80.34       102.0       -15.96      
H           86.92       99.74       -29.5       
S           80.26       98.72       -17.3       
C           80.32       101.21      -16.66      
C           79.9        100.0       -16.22      
C           89.56       102.79      -33.12      
C           89.38       101.48      -32.63      
C           88.79       103.74      -32.42      
N           90.23       100.5       -33.0       
N           88.7        99.82       -31.14      
S           89.94       99.2        -31.99      
H           87.61       104.23      -30.69      
H           88.88       104.79      -32.66      
C           88.02       103.38      -31.26      
C           88.61       101.12      -31.47      
C           87.81       102.1       -30.81      
H           16.31       -6.84       50.68       
H           90.13       103.11      -33.94      
