612

C           96.78       47.98       16.52       
C           96.07       47.07       15.75       
S           95.83       48.49       17.88       
C           90.04       45.96       16.71       
C           90.65       46.85       17.58       
C           89.87       47.39       18.66       
C           88.51       47.03       18.85       
C           87.89       46.25       17.82       
C           88.69       45.7        16.78       
C           87.42       47.39       19.93       
C           86.17       46.84       19.22       
C           86.44       46.19       17.98       
C           91.06       45.49       15.66       
C           92.39       46.18       16.09       
C           92.13       46.92       17.28       
C           84.91       46.93       19.72       
C           83.89       46.39       18.97       
C           84.1        45.69       17.76       
C           85.39       45.65       17.17       
C           93.67       46.1        15.58       
C           94.69       46.91       16.13       
C           94.41       47.58       17.37       
C           93.16       47.61       17.88       
C           87.68       46.78       21.26       
C           87.35       48.91       20.12       
C           91.16       43.99       15.62       
C           90.63       46.11       14.28       
H           88.17       45.11       15.99       
H           90.29       48.04       19.38       
H           93.81       45.43       14.75       
H           92.91       48.17       18.76       
H           84.69       47.56       20.59       
H           85.55       45.27       16.25       
H           87.29       47.4        22.07       
H           88.78       46.84       21.38       
H           87.46631    45.71153    21.28849    
H           88.32       49.2        20.6        
H           86.45       49.15       20.73       
H           87.20484    49.44225    19.17993    
H           89.71       45.49       13.99       
H           90.32       47.15       14.35       
H           91.37903    45.96019    13.50243    
H           90.27       43.62       15.16       
H           92.11       43.82       15.03       
H           91.30126    43.53797    16.60174    
H           82.01       47.19       19.97       
H           96.53       46.68       14.87       
S           82.58       45.27       16.99       
C           82.47       46.64       19.21       
C           81.64       46.08       18.26       
C           100.79      49.86       16.32       
C           100.54      48.67       15.57       
C           99.66       50.47       16.87       
N           101.44      47.91       14.97       
N           99.26       46.73       15.24       
S           100.71      46.5        14.58       
H           97.58       50.59       17.19       
H           99.8        51.32       17.55       
C           98.4        49.84       16.88       
C           99.23       47.99       15.69       
C           98.09       48.57       16.4        
C           113.99      50.46       25.52       
C           112.75      50.97       25.82       
S           114.17      50.08       23.76       
C           108.69      52.27       21.48       
C           109.71      51.42       21.07       
C           109.68      50.83       19.81       
C           108.55      50.96       18.96       
C           107.49      51.77       19.39       
C           107.56      52.43       20.63       
C           108.23      50.2        17.72       
C           106.75      50.64       17.53       
C           106.38      51.62       18.49       
C           108.79      52.64       23.01       
C           110.07      51.87       23.36       
C           110.7       51.39       22.17       
C           105.8       50.2        16.57       
C           104.47      50.54       16.76       
C           104.11      51.29       17.86       
C           105.02      52.0        18.63       
C           110.7       51.74       24.57       
C           111.96      51.12       24.62       
C           112.6       50.73       23.38       
C           111.98      50.76       22.17       
C           109.09      50.77       16.53       
C           108.29      48.66       17.79       
C           108.75      54.21       23.19       
C           107.62      51.99       23.75       
H           106.76      53.07       20.94       
H           110.5       50.22       19.52       
H           110.3       52.24       25.43       
H           112.37      50.46       21.24       
H           106.09      49.51       15.84       
H           104.62      52.58       19.51       
H           109.07      50.13       15.57       
H           110.15      50.58       16.76       
H           108.94287   51.82796    16.3128     
H           109.31      48.39       17.65       
H           107.64      48.21       17.02       
H           108.04018   48.23174    18.76072    
H           106.73      52.56       23.78       
H           107.86      51.87       24.8        
H           107.3925    50.98756    23.38742    
H           107.86      54.57       22.74       
H           108.77      54.37       24.3        
H           109.60873   54.70169    22.73293    
H           103.32      49.6        15.09       
H           112.39      51.2        26.82       
S           102.37      51.4        18.02       
C           103.32      50.16       15.98       
C           102.12      50.4        16.58       
C           117.28      49.44       28.21       
C           115.93      49.42       28.7        
C           117.4       49.82       26.91       
N           115.57      49.23       29.96       
N           113.65      49.69       28.43       
S           113.93      49.29       30.02       
H           116.55      50.2        25.04       
H           118.33      49.85       26.42       
C           116.31      50.07       26.06       
C           114.82      49.74       27.82       
C           115.02      50.06       26.46       
C           130.51      40.59       32.77       
C           129.29      40.25       33.18       
S           130.52      42.06       31.81       
C           124.21      43.17       31.54       
C           125.44      43.62       31.01       
C           125.46      44.76       30.25       
C           124.27      45.36       29.86       
C           123.02      44.96       30.36       
C           123.04      43.87       31.22       
C           124.21      46.76       29.2        
C           122.73      47.02       29.34       
C           122.0       45.96       29.92       
C           124.46      41.88       32.34       
C           125.97      41.76       32.23       
C           126.48      42.7        31.34       
C           122.03      48.15       29.01       
C           120.62      48.23       29.17       
C           119.95      47.2        29.85       
C           120.68      46.05       30.26       
C           126.81      40.87       32.85       
C           128.24      40.99       32.59       
C           128.76      41.98       31.69       
C           127.85      42.89       31.07       
C           125.0       47.89       29.89       
C           124.49      46.73       27.66       
C           123.86      42.18       33.76       
C           123.78      40.65       31.59       
H           122.1       43.54       31.73       
H           126.38      44.93       29.78       
H           126.37      40.13       33.5        
H           128.27      43.71       30.49       
H           122.51      48.89       28.42       
H           120.17      45.34       30.85       
H           125.07      48.84       29.34       
H           126.08      47.66       29.77       
H           124.75173   48.04605    30.93981    
H           125.57      46.72       27.57       
H           124.2       47.62       27.13       
H           124.12491   45.83449    27.15714    
H           122.73      40.83       31.8        
H           123.82      40.62       30.48       
H           124.0548    39.66353    31.96345    
H           123.77      41.28       34.32       
H           122.78      42.53       33.74       
H           124.47496   42.93633    34.24773    
H           120.09      50.01       27.94       
H           129.16      39.35       33.82       
S           118.25      47.53       29.84       
C           119.74      49.19       28.56       
C           118.46      48.98       28.9        
C           134.61      38.99       33.81       
C           133.45      38.18       33.94       
C           134.31      40.25       33.35       
N           133.48      36.96       34.4        
N           131.21      37.73       33.75       
S           131.92      36.4        34.28       
H           132.9       41.84       32.95       
H           135.08      41.01       33.27       
C           132.98      40.75       33.05       
C           132.12      38.7        33.59       
C           131.84      40.02       33.11       
C           146.93      41.35       44.07       
C           146.62      42.29       43.12       
S           146.53      39.72       43.54       
C           142.58      41.13       38.72       
C           143.07      39.99       39.43       
C           142.46      38.77       39.34       
C           141.4       38.58       38.44       
C           141.06      39.65       37.63       
C           141.56      40.92       37.77       
C           140.5       37.36       38.22       
C           139.62      37.84       37.08       
C           139.92      39.23       36.82       
C           143.07      42.4        39.4        
C           144.26      41.77       40.22       
C           144.06      40.4        40.38       
C           138.61      37.19       36.44       
C           137.74      37.94       35.69       
C           138.05      39.34       35.48       
C           139.13      40.01       35.99       
C           145.17      42.46       41.06       
C           145.79      41.82       42.08       
C           145.68      40.38       42.17       
C           144.88      39.67       41.28       
C           141.23      36.04       37.74       
C           139.63      37.11       39.51       
C           143.75      43.45       38.47       
C           142.08      42.97       40.51       
H           141.03      41.74       37.28       
H           142.65      37.96       40.08       
H           145.32      43.52       41.0        
H           144.74      38.6        41.41       
H           138.37      36.16       36.53       
H           139.31      41.03       35.82       
H           141.84      35.64       38.54       
H           140.51      35.19       37.61       
H           141.76688   36.18317    36.80225    
H           139.04      38.02       39.77       
H           138.87      36.36       39.19       
H           140.20473   36.71531    40.34786    
H           142.6       43.58       41.29       
H           141.61      42.12       40.95       
H           141.32821   43.62343    40.06735    
H           144.26      44.22       39.08       
H           142.94      44.08       38.02       
H           144.25069   42.9211     37.65903    
H           136.1       36.61       34.95       
H           146.8       43.36       43.26       
S           137.0       40.12       34.45       
C           136.52      37.58       34.98       
C           135.97      38.67       34.36       
C           148.98      41.76       48.03       
C           148.37      42.88       47.36       
C           148.69      40.57       47.37       
N           148.38      44.1        47.84       
N           147.27      43.99       45.66       
S           147.82      45.12       46.75       
H           147.84      39.48       45.78       
H           149.02      39.66       47.77       
C           147.95      40.5        46.16       
C           147.66      42.79       46.09       
C           147.45      41.56       45.44       
C           162.75      43.53       57.03       
C           162.56      42.72       55.96       
S           161.31      44.53       57.24       
C           157.27      41.66       53.24       
C           157.27      42.67       54.26       
C           156.1       43.32       54.57       
C           154.98      43.02       53.72       
C           155.0       42.11       52.69       
C           156.13      41.39       52.49       
C           153.58      43.7        53.72       
C           152.94      42.99       52.54       
C           153.78      42.05       51.87       
C           158.68      41.04       53.11       
C           159.41      41.76       54.26       
C           158.58      42.77       54.8        
C           151.71      43.26       51.97       
C           151.26      42.55       50.82       
C           152.08      41.54       50.34       
C           153.37      41.33       50.76       
C           160.72      41.63       54.67       
C           161.26      42.6        55.43       
C           160.43      43.55       56.05       
C           159.07      43.66       55.71       
C           152.75      43.39       55.02       
C           153.6       45.21       53.4        
C           158.61      39.48       53.31       
C           159.37      41.46       51.7        
H           156.13      40.71       51.61       
H           156.14      44.19       55.19       
H           161.29      40.82       54.29       
H           158.41      44.39       56.15       
H           151.01      43.86       52.5        
H           153.98      40.46       50.34       
H           153.38      43.45       55.86       
H           151.96      44.15       55.14       
H           152.41194   42.35378    55.02735    
H           154.0       45.36       52.34       
H           152.55      45.41       53.36       
H           154.0472    45.92694    54.08855    
H           158.66      41.5        50.85       
H           159.66      42.5        51.91       
H           160.23803   40.85585    51.43612    
H           158.16      39.01       52.42       
H           159.57      38.99       53.51       
H           158.00133   39.14418    54.14955    
H           149.36      43.49       50.23       
H           163.36      42.06       55.7        
S           151.12      40.55       49.21       
C           150.03      42.68       50.09       
C           149.89      41.8        49.18       
C           166.26      44.66       59.2        
C           166.3       43.53       58.44       
C           165.11      45.37       59.23       
N           167.37      42.79       58.21       
N           165.4       42.13       56.87       
S           166.98      41.68       57.09       
H           163.14      45.6        58.66       
H           165.06      46.38       59.7        
C           163.96      44.93       58.55       
C           165.18      43.15       57.64       
C           163.94      43.83       57.8        
C           178.96      54.26       61.97       
C           177.63      54.51       62.27       
S           179.15      52.54       61.82       
C           173.15      50.49       62.51       
C           174.46      49.93       62.31       
C           174.56      48.54       62.14       
C           173.39      47.78       62.06       
C           172.15      48.36       62.15       
C           172.01      49.71       62.45       
C           173.28      46.37       61.4        
C           171.76      46.33       61.2        
C           171.11      47.54       61.72       
C           173.28      51.93       62.57       
C           174.78      52.19       62.51       
C           175.47      50.98       62.23       
C           170.97      45.37       60.63       
C           169.56      45.6        60.6        
C           168.95      46.75       61.16       
C           169.72      47.75       61.68       
C           175.39      53.35       62.51       
C           176.76      53.4        62.17       
C           177.46      52.22       62.1        
C           176.82      50.93       62.17       
C           174.0       46.21       60.05       
C           173.57      45.23       62.36       
C           172.68      52.76       61.39       
C           172.62      52.47       63.97       
H           171.03      50.17       62.56       
H           175.48      48.03       61.85       
H           174.88      54.25       62.71       
H           177.34      49.99       62.13       
H           171.41      44.5        60.14       
H           169.22      48.62       62.17       
H           175.13      46.21       60.19       
H           173.89      45.23       59.6        
H           173.68215   46.99079    59.35903    
H           172.62      45.13       62.97       
H           173.61      44.21       61.89       
H           174.4352    45.33533    63.01455    
H           171.53      52.56       63.91       
H           173.02      53.51       64.02       
H           172.96721   51.89854    64.8308     
H           171.6       53.01       61.61       
H           173.12      53.75       61.33       
H           172.68727   52.30185    60.40099    
H           169.09      43.77       59.58       
H           177.27      55.51       62.5        
S           167.27      46.68       60.81       
C           168.7       44.73       59.93       
C           167.45      45.19       59.87       
C           182.24      56.99       60.97       
C           181.55      57.15       62.21       
C           181.95      55.81       60.39       
N           181.77      58.13       63.06       
N           179.73      56.83       63.67       
S           180.64      58.1        64.2        
H           180.76      54.08       60.17       
H           182.5       55.49       59.52       
C           180.97      54.91       60.85       
C           180.41      56.31       62.59       
C           180.08      55.1        61.88       
C           194.9       65.01       53.96       
C           194.37      63.79       53.68       
S           193.88      65.84       55.05       
C           189.99      61.17       56.78       
C           189.95      62.58       56.92       
C           189.04      63.16       57.85       
C           188.08      62.39       58.4        
C           188.15      61.02       58.26       
C           189.11      60.37       57.48       
C           186.99      62.83       59.35       
C           186.28      61.48       59.59       
C           186.99      60.45       58.93       
C           191.1       60.76       55.88       
C           191.62      62.04       55.37       
C           191.08      63.11       56.13       
C           185.14      61.13       60.35       
C           184.71      59.81       60.29       
C           185.43      58.82       59.67       
C           186.64      59.09       59.05       
C           192.69      62.17       54.55       
C           193.25      63.46       54.44       
C           192.73      64.52       55.18       
C           191.64      64.37       56.03       
C           187.56      63.39       60.66       
C           185.97      63.83       58.78       
C           192.19      59.96       56.49       
C           190.46      60.12       54.58       
H           189.22      59.35       57.51       
H           189.05      64.27       58.0        
H           193.09      61.32       53.89       
H           191.28      65.2        56.66       
H           184.57      61.85       60.91       
H           187.29      58.37       58.61       
H           187.74      64.48       60.7        
H           186.79      63.27       61.38       
H           188.47269   62.89855    60.99699    
H           185.62      63.25       57.93       
H           185.17      63.99       59.46       
H           186.3546    64.72257    58.28655    
H           191.02      60.04       53.66       
H           189.69      60.75       54.28       
H           190.12596   59.09656    54.75057    
H           191.89      58.93       56.87       
H           192.96      59.71       55.74       
H           192.76825   60.43952    57.2798     
H           182.76      59.71       61.4        
H           194.82      62.95       53.16       
S           184.67      57.25       59.72       
C           183.51      59.24       60.87       
C           183.33      57.87       60.6        
C           198.86      66.75       53.09       
C           198.67      65.33       53.2        
C           197.77      67.39       53.56       
N           199.63      64.42       53.0        
N           197.43      63.41       53.36       
S           199.02      62.92       53.24       
H           195.63      67.52       54.04       
H           197.77      68.42       53.67       
C           196.44      66.87       53.78       
C           197.4       64.7        53.45       
C           196.21      65.49       53.73       
C           211.71      74.99       46.34       
C           210.47      75.47       46.27       
S           211.74      73.56       47.28       
C           205.75      72.8        49.14       
C           207.0       72.11       49.23       
C           207.06      70.93       49.87       
C           205.96      70.26       50.44       
C           204.74      70.96       50.41       
C           204.63      72.2        49.78       
C           205.92      68.97       51.19       
C           204.45      68.9        51.5        
C           203.77      70.1        51.13       
C           205.92      74.15       48.37       
C           207.37      74.1        47.99       
C           208.01      72.97       48.53       
C           203.75      67.95       52.21       
C           202.34      68.06       52.33       
C           201.7       69.25       51.93       
C           202.4       70.31       51.33       
C           208.11      74.99       47.24       
C           209.46      74.75       47.08       
C           210.08      73.68       47.71       
C           209.35      72.8        48.48       
C           206.37      67.73       50.36       
C           206.87      69.07       52.45       
C           204.95      74.2        47.21       
C           205.67      75.42       49.25       
H           203.72      72.75       49.87       
H           207.98      70.38       49.99       
H           207.74      75.83       46.72       
H           209.84      71.89       48.89       
H           204.28      67.03       52.55       
H           201.94      71.16       50.86       
H           207.44      67.77       50.16       
H           206.21      66.84       51.02       
H           205.75617   67.68004    49.46066    
H           207.75      69.49       52.05       
H           206.95      68.13       52.98       
H           206.52722   69.84499    53.13556    
H           204.65      75.75       49.11       
H           206.3       76.24       48.9        
H           206.00165   75.24696    50.2738     
H           203.95      73.88       47.55       
H           204.97      75.26       46.88       
H           205.17065   73.46687    46.43416    
H           201.71      66.13       53.04       
H           210.21      76.31       45.67       
S           199.99      69.06       52.14       
C           201.42      67.08       52.78       
C           200.13      67.46       52.76       
C           215.42      75.49       44.08       
C           214.23      76.22       43.69       
C           215.29      74.8        45.27       
N           214.1       76.9        42.58       
N           212.07      76.94       43.96       
S           212.58      77.59       42.56       
H           214.09      74.05       46.87       
H           216.06      74.23       45.74       
C           214.08      74.78       46.07       
C           213.02      76.2        44.53       
C           212.94      75.34       45.64       
C           226.29      68.16       33.71       
C           226.38      67.99       35.0        
S           225.12      69.4        33.34       
C           222.62      70.67       39.16       
C           222.55      71.11       37.8        
C           221.79      72.21       37.42       
C           221.06      72.86       38.4        
C           221.04      72.38       39.73       
C           221.81      71.27       40.15       
C           220.06      73.99       38.2        
C           219.52      74.2        39.6        
C           220.0       73.18       40.43       
C           223.67      69.53       39.24       
C           224.21      69.5        37.74       
C           223.48      70.4        36.93       
C           218.53      75.06       40.01       
C           218.01      74.93       41.3        
C           218.56      74.01       42.2        
C           219.62      73.18       41.81       
C           225.26      68.75       37.22       
C           225.46      68.79       35.82       
C           224.74      69.66       35.04       
C           223.73      70.5        35.55       
C           220.82      75.25       37.67       
C           218.97      73.63       37.18       
C           224.82      69.89       40.2        
C           222.95      68.25       39.68       
H           221.73      70.92       41.18       
H           221.76      72.63       36.41       
H           225.85      68.06       37.85       
H           223.11      71.2        34.99       
H           218.04      75.75       39.27       
H           219.98      72.38       42.5        
H           220.03      76.03       37.48       
H           221.32      75.11       36.74       
H           221.48588   75.58294    38.46616    
H           219.33      73.6        36.18       
H           218.24      74.4        37.18       
H           218.42591   72.71846    37.42732    
H           222.76      68.12       40.72       
H           221.91      68.28       39.21       
H           223.49083   67.35798    39.36393    
H           225.53      69.01       40.43       
H           224.38      70.03       41.2        
H           225.33357   70.81443    39.93588    
H           216.23      76.17       41.24       
H           226.99      67.22       35.46       
S           217.73      74.06       43.74       
C           216.84      75.54       41.89       
C           216.54      75.19       43.24       
C           228.39      66.61       30.09       
C           229.07      66.75       31.35       
C           227.04      66.67       30.26       
N           230.37      66.43       31.57       
N           229.31      67.54       33.53       
S           230.74      66.96       33.09       
H           225.34      67.36       31.31       
H           226.47      66.37       29.42       
C           226.39      67.2        31.41       
C           228.45      67.3        32.53       
C           227.04      67.58       32.53       
C           234.13      60.98       15.49       
C           233.0       60.57       16.14       
S           235.11      62.03       16.58       
C           230.97      62.84       21.36       
C           232.26      63.31       20.92       
C           233.0       64.29       21.71       
C           232.43      64.55       22.98       
C           231.11      64.11       23.4        
C           230.35      63.33       22.53       
C           233.08      65.41       24.1        
C           231.91      65.58       25.11       
C           230.84      64.76       24.65       
C           230.29      61.92       20.3        
C           231.53      61.69       19.43       
C           232.61      62.61       19.7        
C           231.88      66.13       26.37       
C           230.65      66.01       27.05       
C           229.61      65.14       26.65       
C           229.72      64.43       25.41       
C           231.61      61.04       18.26       
C           232.72      61.16       17.41       
C           233.78      62.03       17.76       
C           233.71      62.8        18.96       
C           234.28      64.67       24.66       
C           233.4       66.86       23.7        
C           229.81      60.5        20.86       
C           229.29      62.63       19.42       
H           229.33      63.12       22.71       
H           234.04      64.6        21.5        
H           230.82      60.37       17.96       
H           234.48      63.47       19.23       
H           232.7       66.71       26.75       
H           228.95      63.8        25.09       
H           235.1       64.49       24.0        
H           234.67      65.3        25.43       
H           233.89553   63.74028    25.07942    
H           234.1       66.95       22.81       
H           233.95      67.35       24.51       
H           232.56376   67.54741    23.57244    
H           228.8       61.89       18.86       
H           229.89      63.23       18.71       
H           228.5798    63.24879    19.96847    
H           230.25      59.71       20.26       
H           228.72      60.37       20.71       
H           230.11883   60.26136    21.87773    
H           230.88      67.37       28.83       
H           232.24      59.98       15.73       
S           228.26      65.06       27.74       
C           230.22      66.66       28.28       
C           229.01      66.24       28.78       
C           236.02      59.94       11.61       
C           234.93      59.19       12.16       
C           236.31      61.0        12.39       
N           234.46      58.13       11.49       
N           233.1       58.78       13.55       
S           233.18      57.59       12.39       
H           236.13      62.17       14.17       
H           237.19      61.64       12.17       
C           235.75      61.3        13.67       
C           234.26      59.54       13.42       
C           234.73      60.64       14.23       
H           80.62       45.92       18.46       
H           236.81      59.45       11.04       
