612

C           15.34       101.61      18.1        
C           15.67       101.71      19.4        
S           16.24       100.3       17.36       
C           20.3        98.68       21.77       
C           20.03       98.37       20.46       
C           20.84       97.56       19.63       
C           22.07       97.0        20.1        
C           22.38       97.29       21.49       
C           21.57       98.15       22.31       
C           23.09       96.04       19.43       
C           24.07       95.95       20.61       
C           23.7        96.7        21.78       
C           19.58       99.95       22.2        
C           18.42       99.83       21.24       
C           18.81       99.03       20.12       
C           25.25       95.29       20.59       
C           26.15       95.39       21.66       
C           25.77       96.17       22.79       
C           24.55       96.87       22.84       
C           17.27       100.64      21.11       
C           16.62       100.74      19.88       
C           16.98       99.86       18.87       
C           18.03       98.94       18.95       
C           22.52       94.59       19.13       
C           23.77       96.72       18.23       
C           19.32       99.88       23.7        
C           20.46       101.19      21.92       
H           21.88       98.4        23.34       
H           20.44       97.45       18.59       
H           16.98       101.37      21.82       
H           18.32       98.41       18.05       
H           25.57       94.65       19.78       
H           24.16       97.26       23.81       
H           23.33       93.89       19.17       
H           22.14       94.61       18.07       
H           21.63388    94.37024    19.72548    
H           23.11       96.89       17.42       
H           24.52       96.01       17.85       
H           24.19619    97.71934    18.31818    
H           21.44       101.14      22.45       
H           20.73       101.17      20.83       
H           19.95531    102.1354    22.11903    
H           20.26       99.72       24.25       
H           18.95       100.82      24.18       
H           18.67407    99.07081    24.04071    
H           27.84       94.07       21.08       
H           15.22       102.41      20.05       
S           27.09       96.13       23.91       
C           27.4        94.7        21.86       
C           28.0        94.9        23.06       
C           12.82       103.83      15.3        
C           12.83       104.25      16.64       
C           13.63       102.76      15.01       
N           12.29       105.3       17.18       
N           13.55       104.01      18.89       
S           12.49       105.25      18.83       
H           14.92       101.19      15.55       
H           13.77       102.51      13.98       
C           14.46       102.12      15.92       
C           13.68       103.53      17.62       
C           14.47       102.41      17.24       
C           8.45        112.2       1.9         
C           8.42        112.87      3.08        
S           8.45        110.48      2.09        
C           9.04        109.96      8.45        
C           8.89        109.17      7.29        
C           9.07        107.77      7.29        
C           9.46        107.21      8.46        
C           9.58        107.97      9.73        
C           9.36        109.38      9.67        
C           9.67        105.68      8.72        
C           10.16       105.73      10.19       
C           10.03       107.03      10.75       
C           9.07        111.43      8.05        
C           8.86        111.39      6.55        
C           8.69        110.05      6.16        
C           10.63       104.69      10.84       
C           11.11       104.91      12.11       
C           10.89       106.19      12.71       
C           10.31       107.26      12.02       
C           8.74        112.35      5.56        
C           8.62        112.03      4.18        
C           8.55        110.67      3.84        
C           8.59        109.67      4.83        
C           8.41        104.9       8.55        
C           10.8        105.22      7.68        
C           8.0         112.26      8.83        
C           10.51       111.99      8.3         
H           9.39        110.03      10.55       
H           9.03        107.16      6.41        
H           8.69        113.41      5.82        
H           8.66        108.61      4.51        
H           10.69       103.72      10.44       
H           10.33       108.24      12.49       
H           8.09        105.14      7.56        
H           7.7         105.28      9.2         
H           8.43971     103.83044   8.75797     
H           10.47       105.39      6.67        
H           11.14       104.22      7.94        
H           11.63345    105.92186   7.65076     
H           10.85       111.92      9.32        
H           11.12       111.29      7.71        
H           10.67711    113.02053   7.98666     
H           8.14        112.07      9.91        
H           8.04        113.33      8.62        
H           6.98061     111.89388   8.70796     
H           12.27       103.09      12.64       
H           8.63        113.96      3.21        
S           11.52       106.21      14.33       
C           11.95       104.07      12.91       
C           12.06       104.5       14.22       
C           7.87        113.11      -2.48       
C           7.76        114.16      -1.43       
C           8.2         111.93      -1.94       
N           7.46        115.46      -1.62       
N           7.84        115.01      0.72        
S           7.58        116.27      -0.19       
H           8.81        110.66      -0.33       
H           8.24        111.05      -2.55       
C           8.54        111.66      -0.56       
C           8.03        113.9       -0.03       
C           8.46        112.59      0.47        
C           1.44        108.94      -16.64      
C           2.65        108.54      -16.19      
S           0.96        110.35      -15.78      
C           5.9         111.34      -11.9       
C           4.73        111.97      -12.18      
C           4.18        112.98      -11.36      
C           4.83        113.35      -10.2       
C           6.05        112.64      -9.88       
C           6.6         111.68      -10.73      
C           4.43        114.36      -9.12       
C           5.53        113.95      -8.09       
C           6.47        113.03      -8.56       
C           6.16        110.15      -12.83      
C           4.87        110.17      -13.61      
C           4.05        111.23      -13.26      
C           5.58        114.27      -6.75       
C           6.5         113.7       -5.88       
C           7.43        112.72      -6.31       
C           7.46        112.4       -7.72       
C           4.52        109.28      -14.62      
C           3.26        109.38      -15.18      
C           2.35        110.42      -14.79      
C           2.75        111.31      -13.8       
C           4.53        115.87      -9.5        
C           3.03        113.94      -8.66       
C           7.31        110.4       -13.8       
C           6.16        108.69      -12.21      
H           7.52        111.07      -10.52      
H           3.14        113.26      -11.42      
H           5.16        108.53      -15.05      
H           2.06        112.09      -13.47      
H           4.96        115.11      -6.31       
H           8.24        111.76      -8.12       
H           3.74        116.5       -8.92       
H           4.11        115.87      -10.5       
H           5.56475     116.21254   -9.50714    
H           2.38        114.34      -9.44       
H           2.83        114.45      -7.74       
H           2.88059     112.87372   -8.49021    
H           5.87        107.96      -12.91      
H           5.33        108.5       -11.6       
H           7.09285     108.42652   -11.71153   
H           8.18        110.44      -13.19      
H           7.49        109.54      -14.43      
H           7.19471     111.32236   -14.36927   
H           5.87        114.64      -3.98       
H           3.09        107.62      -16.58      
S           8.37        112.26      -4.96       
C           6.59        114.01      -4.46       
C           7.5         113.21      -3.88       
C           -1.69       107.37      -19.34      
C           -0.51       106.61      -19.1       
C           -1.77       108.6       -18.69      
N           -0.23       105.44      -19.58      
N           1.58        106.23      -18.17      
S           1.28        104.89      -19.13      
H           -0.96       110.05      -17.47      
H           -2.67       109.24      -18.82      
C           -0.78       109.02      -17.78      
C           0.56        107.07      -18.17      
C           0.41        108.35      -17.54      
C           -8.31       107.25      -34.31      
C           -8.57       108.31      -33.48      
S           -7.91       105.8       -33.45      
C           -6.79       108.09      -27.64      
C           -6.84       106.85      -28.33      
C           -6.38       105.67      -27.72      
C           -5.85       105.81      -26.45      
C           -5.89       107.0       -25.76      
C           -6.2        108.2       -26.38      
C           -5.47       104.64      -25.51      
C           -4.93       105.44      -24.28      
C           -5.18       106.84      -24.46      
C           -7.24       109.22      -28.58      
C           -7.64       108.45      -29.83      
C           -7.33       107.03      -29.72      
C           -4.3        105.02      -23.13      
C           -3.86       106.01      -22.19      
C           -4.09       107.37      -22.43      
C           -4.86       107.79      -23.57      
C           -8.3        108.84      -30.96      
C           -8.2        108.04      -32.09      
C           -7.79       106.69      -31.99      
C           -7.43       106.16      -30.73      
C           -6.7        103.83      -25.17      
C           -4.29       103.77      -25.95      
C           -8.49       109.96      -28.03      
C           -6.01       110.15      -28.83      
H           -6.07       109.1       -25.75      
H           -6.4        104.68      -28.26      
H           -8.6        109.87      -31.05      
H           -7.21       105.09      -30.57      
H           -3.92       103.96      -23.05      
H           -5.16       108.85      -23.65      
H           -6.41       102.8       -24.88      
H           -7.29       103.68      -26.1       
H           -7.36403    104.26337   -24.4221    
H           -4.71       103.0       -26.53      
H           -3.82       103.17      -25.16      
H           -3.56801    104.37166   -26.50211   
H           -5.8        110.58      -27.87      
H           -5.17       109.45      -29.08      
H           -6.17611    110.98053   -29.51609   
H           -8.91       110.61      -28.76      
H           -8.22       110.63      -27.22      
H           -9.31675    109.32906   -27.70365   
H           -2.39       104.93      -20.93      
H           -8.84       109.33      -33.75      
S           -3.18       108.32      -21.29      
C           -2.86       105.88      -21.15      
C           -2.57       106.96      -20.44      
C           -7.04       107.93      -38.51      
C           -8.14       108.59      -37.97      
C           -6.43       107.1       -37.61      
N           -8.86       109.56      -38.58      
N           -9.79       108.98      -36.45      
S           -10.05      110.08      -37.6       
H           -6.47       106.04      -35.64      
H           -5.48       106.7       -37.8       
C           -7.03       106.73      -36.31      
C           -8.67       108.25      -36.65      
C           -8.12       107.29      -35.78      
C           7.04        112.96      -45.44      
C           6.46        113.54      -44.38      
S           5.94        111.85      -46.32      
C           0.73        111.89      -42.49      
C           1.15        111.28      -43.69      
C           0.4         110.2       -44.22      
C           -0.66       109.75      -43.52      
C           -1.07       110.35      -42.35      
C           -0.35       111.43      -41.83      
C           -1.42       108.41      -43.69      
C           -2.53       108.56      -42.62      
C           -2.35       109.76      -41.85      
C           1.79        112.96      -42.09      
C           2.9         112.83      -43.17      
C           2.47        111.89      -44.15      
C           -3.66       107.8       -42.18      
C           -4.46       108.3       -41.13      
C           -4.22       109.49      -40.46      
C           -3.11       110.22      -40.87      
C           4.14        113.46      -43.17      
C           5.07        113.17      -44.18      
C           4.66        112.21      -45.19      
C           3.34        111.65      -45.26      
C           -2.06       108.35      -45.12      
C           -0.58       107.18      -43.5       
C           1.17        114.4       -42.1       
C           2.43        112.65      -40.69      
H           -0.67       111.84      -40.89      
H           0.69        109.72      -45.19      
H           4.5         114.06      -42.37      
H           3.04        111.04      -46.09      
H           -3.95       106.91      -42.62      
H           -2.82       111.1       -40.26      
H           -2.72       107.45      -45.08      
H           -1.27       108.22      -45.88      
H           -2.66722    109.20151   -45.4271    
H           -0.12       106.78      -44.38      
H           -1.18       106.3       -43.12      
H           0.24017     107.34403   -42.80107   
H           1.79        112.91      -39.86      
H           3.4         113.21      -40.57      
H           2.5102      111.57091   -40.55876   
H           0.36        114.51      -41.37      
H           0.72        114.55      -43.06      
H           1.84689     115.22884   -41.89279   
H           -5.9        106.57      -40.89      
H           7.1         114.13      -43.81      
S           -5.27       109.78      -39.16      
C           -5.54       107.62      -40.57      
C           -6.18       108.37      -39.57      
C           11.21       112.32      -46.64      
C           10.44       113.25      -47.36      
C           10.54       111.7       -45.58      
N           10.89       113.92      -48.42      
N           8.41        114.22      -48.07      
S           9.54        114.6       -49.17      
H           8.9         111.5       -44.22      
H           11.1        110.95      -44.98      
C           9.28        112.03      -45.1       
C           9.0         113.44      -47.05      
C           8.49        112.92      -45.8       
C           27.8        111.51      -46.11      
C           27.13       112.7       -46.04      
S           26.65       110.19      -46.21      
C           21.05       113.06      -46.09      
C           21.59       111.78      -46.39      
C           20.77       110.62      -46.62      
C           19.44       110.77      -46.61      
C           18.86       112.06      -46.39      
C           19.64       113.19      -46.07      
C           18.36       109.69      -46.82      
C           17.13       110.58      -46.81      
C           17.46       111.88      -46.59      
C           22.18       114.1       -45.91      
C           23.42       113.23      -46.07      
C           23.09       111.91      -46.33      
C           15.81       110.12      -46.98      
C           14.76       111.06      -46.89      
C           15.11       112.37      -46.49      
C           16.48       112.79      -46.38      
C           24.72       113.62      -46.04      
C           25.73       112.66      -46.16      
C           25.3        111.32      -46.27      
C           24.01       110.96      -46.6       
C           18.58       109.07      -48.26      
C           18.29       108.63      -45.76      
C           22.07       115.14      -47.06      
C           22.3        114.8       -44.54      
H           19.19       114.1       -45.77      
H           21.22       109.64      -46.81      
H           24.95       114.65      -45.96      
H           23.61       109.94      -46.7       
H           15.65       109.09      -47.19      
H           16.67       113.8       -46.14      
H           17.93       108.23      -48.42      
H           19.59       108.69      -48.25      
H           18.45759    109.73247   -49.11689   
H           18.95       107.74      -46.1       
H           17.29       108.25      -45.8       
H           18.57297    108.94666   -44.75613   
H           21.92       115.81      -44.64      
H           23.36       114.8       -44.32      
H           21.86147    114.2105    -43.73484   
H           21.16       115.7       -46.75      
H           22.89       115.81      -47.02      
H           21.80867    114.74074   -48.04      
H           12.79       109.98      -47.1       
H           27.71       113.58      -45.93      
S           13.69       113.31      -46.24      
C           13.31       110.91      -46.97      
C           12.63       112.06      -46.83      
C           32.07       110.48      -46.23      
C           31.63       111.77      -45.9       
C           31.05       109.53      -46.41      
N           32.44       112.74      -45.52      
N           30.09       113.43      -45.48      
S           31.57       114.08      -45.24      
H           28.93       109.09      -46.51      
H           31.21       108.47      -46.65      
C           29.69       109.9       -46.29      
C           30.29       112.16      -45.87      
C           29.24       111.18      -46.05      
C           46.36       103.49      -51.05      
C           45.13       102.91      -50.9       
S           46.32       105.08      -50.27      
C           40.14       105.58      -48.73      
C           41.24       106.43      -48.89      
C           41.15       107.77      -48.46      
C           39.91       108.27      -48.0       
C           38.77       107.42      -47.95      
C           38.9        106.05      -48.27      
C           39.52       109.75      -47.79      
C           38.12       109.56      -47.4       
C           37.65       108.25      -47.56      
C           40.44       104.27      -49.46      
C           41.95       104.46      -49.73      
C           42.36       105.73      -49.46      
C           37.16       110.44      -47.04      
C           35.8        110.1       -46.82      
C           35.46       108.75      -47.08      
C           36.38       107.83      -47.46      
C           42.76       103.48      -50.21      
C           44.12       103.78      -50.42      
C           44.62       105.06      -50.09      
C           43.69       106.1       -49.59      
C           40.36       110.41      -46.64      
C           39.57       110.56      -49.14      
C           40.06       103.1       -48.49      
C           39.66       104.05      -50.8       
H           37.96       105.43      -48.25      
H           42.03       108.35      -48.51      
H           42.27       102.45      -50.5       
H           44.06       107.04      -49.25      
H           37.39       111.47      -46.94      
H           36.11       106.81      -47.73      
H           41.4        110.63      -46.95      
H           39.88       111.38      -46.33      
H           40.42194    109.79056   -45.74526   
H           39.22       109.9       -49.99      
H           38.91       111.37      -49.17      
H           40.57014    110.79361   -49.50502   
H           38.67       103.57      -50.56      
H           40.1        103.27      -51.43      
H           39.53459    105.00168   -51.31641   
H           39.02       103.18      -48.19      
H           40.16       102.17      -49.09      
H           40.72989    102.9835    -47.63808   
H           34.68       111.88      -46.12      
H           44.98       101.83      -51.02      
S           33.77       108.46      -46.98      
C           34.63       110.87      -46.43      
C           33.47       110.08      -46.42      
C           50.37       101.85      -51.52      
C           50.03       103.24      -51.98      
C           49.25       101.2       -51.08      
N           50.96       104.04      -52.54      
N           48.64       105.05      -52.35      
S           50.17       105.42      -52.86      
H           47.24       101.23      -50.39      
H           49.4        100.24      -50.67      
C           48.0        101.73      -51.01      
C           48.69       103.79      -51.87      
C           47.66       102.93      -51.39      
C           62.81       91.5        -54.27      
C           62.12       91.37       -53.04      
S           62.42       93.01       -55.05      
C           57.98       95.48       -51.18      
C           58.8        95.75       -52.37      
C           58.51       96.85       -53.22      
C           57.38       97.7        -52.91      
C           56.67       97.42       -51.75      
C           56.93       96.33       -50.83      
C           56.83       98.77       -53.81      
C           55.64       99.11       -52.94      
C           55.54       98.35       -51.76      
C           58.49       94.16       -50.56      
C           59.69       93.78       -51.49      
C           59.82       94.75       -52.52      
C           54.64       99.94       -53.26      
C           53.62       100.22      -52.38      
C           53.47       99.48       -51.27      
C           54.39       98.43       -50.9       
C           60.45       92.63       -51.52      
C           61.3        92.45       -52.68      
C           61.41       93.46       -53.7       
C           60.72       94.64       -53.57      
C           57.82       99.89       -53.93      
C           56.38       98.26       -55.21      
C           58.86       94.32       -49.02      
C           57.21       93.31       -50.69      
H           56.35       96.08       -49.92      
H           59.09       97.1        -54.05      
H           60.19       91.83       -50.72      
H           60.77       95.48       -54.29      
H           54.75       100.65      -54.08      
H           54.11       97.72       -50.14      
H           57.6        100.37      -54.86      
H           58.76       99.41       -54.01      
H           57.86385    100.55511   -53.06756   
H           57.23       97.87       -55.8       
H           56.01       99.15       -55.65      
H           55.6462     97.45698    -55.14077   
H           56.51       93.57       -49.82      
H           56.71       93.63       -51.57      
H           57.36112    92.23055    -50.6828    
H           58.5        93.5        -48.41      
H           58.17       95.13       -48.69      
H           59.87287    94.68832    -48.85709   
H           52.35       101.84      -53.43      
H           62.23       90.59       -52.37      
S           51.98       99.85       -50.5       
C           52.56       101.19      -52.55      
C           51.62       101.14      -51.61      
C           64.96       88.65       -56.86      
C           65.44       89.98       -56.72      
C           63.84       88.34       -56.09      
N           66.33       90.56       -57.53      
N           65.32       92.12       -55.81      
S           66.47       92.12       -56.98      
H           62.28       88.9        -54.86      
H           63.35       87.38       -56.27      
C           63.19       89.26       -55.25      
C           64.76       90.87       -55.8       
C           63.64       90.54       -54.96      
C           72.26       74.63       -61.57      
C           72.84       75.61       -60.78      
S           70.63       75.08       -61.98      
C           70.2        80.81       -59.28      
C           69.4        79.94       -60.05      
C           68.15       80.35       -60.53      
C           67.72       81.63       -60.21      
C           68.56       82.53       -59.48      
C           69.81       82.15       -59.02      
C           66.3        82.13       -60.4       
C           66.55       83.59       -60.03      
C           67.79       83.77       -59.37      
C           71.51       80.12       -58.85      
C           71.27       78.75       -59.45      
C           70.03       78.63       -60.14      
C           65.61       84.57       -59.79      
C           65.9        85.7        -59.0       
C           67.2        85.95       -58.61      
C           68.13       84.96       -58.69      
C           72.22       77.83       -59.68      
C           71.97       76.7        -60.43      
C           70.74       76.63       -61.14      
C           69.71       77.54       -60.86      
C           65.79       81.97       -61.81      
C           65.25       81.64       -59.39      
C           72.78       80.78       -59.39      
C           71.69       79.85       -57.31      
H           70.55       82.93       -58.67      
H           67.47       79.69       -60.92      
H           73.18       77.85       -59.06      
H           68.71       77.53       -61.34      
H           64.61       84.53       -60.25      
H           69.17       85.1        -58.34      
H           65.58       80.87       -61.9       
H           64.82       82.37       -62.08      
H           66.49773    82.22998    -62.59717   
H           65.4        82.19       -58.46      
H           64.21       81.85       -59.78      
H           65.25716    80.56604    -59.20385   
H           72.21       80.61       -56.72      
H           72.16       78.84       -57.14      
H           70.72059    79.73425    -56.82529   
H           73.7        80.32       -59.06      
H           72.81       81.69       -58.82      
H           72.77268    80.99235    -60.45909   
H           63.93       86.83       -58.79      
H           73.94       75.51       -60.51      
S           67.28       87.49       -57.81      
C           64.99       86.79       -58.61      
C           65.58       87.69       -57.74      
C           73.81       71.22       -63.81      
C           72.63       71.02       -62.87      
C           74.32       72.49       -63.78      
N           71.96       69.89       -62.56      
N           71.32       71.82       -61.12      
S           70.96       70.25       -61.31      
H           74.37       74.55       -63.09      
H           75.2        72.69       -64.41      
C           73.88       73.59       -62.96      
C           72.23       72.18       -62.07      
C           72.85       73.46       -62.13      
C           82.31       59.76       -71.63      
C           82.44       61.04       -72.05      
S           80.92       59.45       -70.61      
C           78.83       65.52       -70.0       
C           78.54       64.15       -69.59      
C           77.63       63.91       -68.56      
C           76.86       64.93       -68.17      
C           77.08       66.27       -68.58      
C           78.12       66.57       -69.42      
C           75.8        64.85       -67.09      
C           75.35       66.27       -66.94      
C           76.17       67.09       -67.78      
C           79.92       65.5        -71.0       
C           80.23       63.96       -71.17      
C           79.45       63.24       -70.27      
C           74.6        66.78       -65.94      
C           74.73       68.13       -65.71      
C           75.36       69.03       -66.62      
C           76.15       68.51       -67.65      
C           81.31       63.33       -71.75      
C           81.41       61.91       -71.59      
C           80.55       61.2        -70.78      
C           79.52       61.89       -70.16      
C           74.72       63.84       -67.51      
C           76.4        64.46       -65.72      
C           79.39       65.92       -72.43      
C           81.16       66.33       -70.61      
H           78.41       67.65       -69.6       
H           77.37       62.88       -68.18      
H           82.02       63.93       -72.26      
H           78.9        61.39       -69.51      
H           73.97       66.18       -65.27      
H           76.82       69.08       -68.31      
H           74.12       63.69       -66.62      
H           75.36       62.95       -67.84      
H           74.16779    64.09817    -68.41361   
H           76.81       63.46       -65.84      
H           75.56       64.39       -64.98      
H           77.10529    65.21417    -65.37085   
H           81.17       67.24       -71.18      
H           82.17       65.87       -70.88      
H           81.31706    66.50848    -69.54624   
H           80.26       65.79       -73.1       
H           79.05       66.93       -72.51      
H           78.55291    65.30283    -72.75632   
H           73.58       68.4        -63.88      
H           83.29       61.37       -72.64      
S           75.32       70.68       -66.12      
C           74.2        68.89       -64.66      
C           74.29       70.24       -64.75      
C           85.23       56.35       -72.04      
C           85.29       57.48       -72.87      
C           84.23       56.5        -71.15      
N           86.21       57.72       -73.88      
N           84.5        59.42       -73.88      
S           85.84       59.08       -74.74      
H           82.53       57.44       -70.28      
H           84.14       55.78       -70.38      
C           83.23       57.54       -71.12      
C           84.36       58.63       -72.85      
C           83.27       58.67       -71.89      
H           29.09       94.8        23.24       
H           85.58       55.44       -72.46      
