612

C           89.29       96.8        79.79       
C           88.61       97.98       79.82       
S           88.88       95.75       81.12       
C           83.63       98.73       83.24       
C           84.48       97.59       83.58       
C           84.12       96.85       84.7        
C           82.96       97.12       85.45       
C           82.23       98.34       85.1        
C           82.51       99.11       83.98       
C           82.33       96.41       86.69       
C           81.21       97.34       87.0        
C           81.14       98.43       86.07       
C           84.44       99.57       82.32       
C           85.63       98.74       82.05       
C           85.64       97.55       82.68       
C           80.31       97.3        88.05       
C           79.31       98.31       88.16       
C           79.16       99.25       87.11       
C           80.13       99.35       86.11       
C           86.65       99.04       81.13       
C           87.6        98.02       80.81       
C           87.52       96.8        81.57       
C           86.66       96.58       82.59       
C           81.71       95.06       86.23       
C           83.28       96.29       87.91       
C           83.56       99.65       81.06       
C           84.67       101.0       82.79       
H           81.85       99.98       83.7        
H           84.65       95.9        84.92       
H           86.76       100.02      80.62       
H           86.73       95.68       83.18       
H           80.18       96.49       88.72       
H           79.99       100.13      85.32       
H           82.45       94.33       86.16       
H           81.02       94.68       87.0        
H           81.26939    95.12396    85.23508    
H           83.61       97.31       88.15       
H           82.83       95.74       88.74       
H           84.1861     95.7324     87.67302    
H           83.68       101.37      83.1        
H           84.83       101.6       81.86       
H           85.54198    101.04806   83.44226    
H           82.66       100.3       81.31       
H           84.11       100.15      80.33       
H           83.16399    98.68517    80.74319    
H           78.09       97.69       89.86       
H           88.76       98.74       79.02       
S           77.65       100.01      87.17       
C           78.21       98.39       89.06       
C           77.13       99.22       88.63       
C           92.0        95.61       76.55       
C           91.98       96.95       77.06       
C           91.12       94.79       77.2        
N           92.78       97.89       76.53       
N           91.2        98.68       78.34       
S           92.34       99.26       77.35       
H           89.62       94.43       78.71       
H           90.92       93.77       76.9        
C           90.3        95.19       78.32       
C           91.12       97.39       78.1        
C           90.34       96.46       78.85       
C           105.78      90.76       68.74       
C           105.76      91.37       70.0        
S           104.14      90.39       68.21       
C           100.62      92.62       72.96       
C           100.42      92.12       71.63       
C           99.15       91.85       71.07       
C           98.07       92.24       71.84       
C           98.29       92.82       73.16       
C           99.5        92.91       73.72       
C           96.58       91.89       71.58       
C           96.0        92.72       72.73       
C           96.96       93.2        73.61       
C           102.11      92.82       73.28       
C           102.75      92.42       71.95       
C           101.79      92.04       71.05       
C           94.7        92.98       73.07       
C           94.25       93.76       74.16       
C           95.32       94.33       74.99       
C           96.64       94.01       74.69       
C           104.02      92.43       71.58       
C           104.45      91.71       70.44       
C           103.42      91.27       69.54       
C           102.11      91.5        69.82       
C           96.1        92.56       70.25       
C           96.28       90.42       71.68       
C           102.47      94.36       73.58       
C           102.63      91.82       74.41       
H           99.61       93.47       74.66       
H           99.04       91.42       70.08       
H           104.77      92.83       72.24       
H           101.3       91.25       69.09       
H           93.97       92.64       72.4        
H           97.35       94.46       75.31       
H           96.74       92.14       69.41       
H           95.12       92.25       70.05       
H           96.22185    93.64231    70.20699    
H           97.0        89.88       71.06       
H           95.22       90.07       71.37       
H           96.58562    90.05187    72.65937    
H           102.63      92.24       75.37       
H           103.67      91.65       74.15       
H           102.15735   90.83943    74.35356    
H           102.31      94.74       74.6        
H           103.51      94.53       73.42       
H           101.8828    95.06604    72.9928     
H           91.99       93.82       74.27       
H           106.64      91.72       70.53       
S           94.63       95.22       76.29       
C           92.97       94.14       74.66       
C           93.03       95.11       75.67       
C           108.95      88.06       67.19       
C           107.94      88.63       66.28       
C           108.8       88.52       68.48       
N           107.93      88.45       64.96       
N           106.1       89.94       65.74       
S           106.65      89.21       64.38       
H           107.75      89.67       69.93       
H           109.37      88.15       69.3        
C           107.79      89.42       68.88       
C           106.91      89.57       66.69       
C           106.82      89.92       68.08       
C           117.69      74.59       63.19       
C           117.64      75.05       64.5        
S           116.72      75.56       62.17       
C           114.99      80.3        66.06       
C           115.21      80.11       64.68       
C           114.64      80.96       63.71       
C           113.83      82.03       64.15       
C           113.63      82.25       65.53       
C           114.21      81.36       66.49       
C           113.23      83.12       63.3        
C           112.41      83.92       64.36       
C           112.74      83.4        65.67       
C           115.56      79.08       66.8        
C           116.24      78.3        65.73       
C           115.8       78.84       64.52       
C           111.56      84.98       64.2        
C           111.16      85.65       65.38       
C           111.49      85.09       66.65       
C           112.25      83.99       66.85       
C           116.86      77.09       65.81       
C           117.02      76.32       64.64       
C           116.48      76.81       63.44       
C           115.83      78.03       63.38       
C           114.43      83.83       62.58       
C           112.27      82.46       62.24       
C           116.59      79.48       67.86       
C           114.34      78.24       67.4        
H           114.03      81.45       67.53       
H           114.83      80.81       62.71       
H           117.38      76.78       66.68       
H           115.53      78.49       62.45       
H           111.19      85.27       63.22       
H           112.52      83.64       67.81       
H           114.65      83.33       61.61       
H           115.27      83.75       63.29       
H           114.31594   84.89927    62.40179    
H           112.81      81.91       61.49       
H           111.68      83.26       61.64       
H           111.49569   81.85059    62.70602    
H           113.69      78.88       67.96       
H           113.72      77.9        66.58       
H           114.61944   77.45758    68.10557    
H           116.07      80.16       68.57       
H           116.91      78.65       68.42       
H           117.40358   80.09018    67.46774    
H           110.06      87.23       64.54       
H           117.9       74.32       65.33       
S           110.86      86.11       67.9        
C           110.36      86.79       65.49       
C           110.03      87.18       66.76       
C           119.92      71.06       61.93       
C           119.24      71.86       60.99       
C           119.85      71.51       63.22       
N           119.25      71.72       59.69       
N           117.94      73.66       60.37       
S           118.23      72.83       59.03       
H           119.13      72.94       64.72       
H           120.34      70.93       63.99       
C           119.11      72.66       63.68       
C           118.4       72.96       61.38       
C           118.33      73.38       62.79       
C           127.23      56.3        59.84       
C           126.96      56.72       61.15       
S           126.61      57.42       58.64       
C           124.75      62.42       62.17       
C           125.08      62.12       60.77       
C           124.76      62.97       59.7        
C           124.21      64.22       60.04       
C           123.98      64.56       61.39       
C           124.13      63.63       62.47       
C           124.03      65.35       58.98       
C           123.3       66.28       59.96       
C           123.42      65.93       61.27       
C           125.02      61.17       63.07       
C           125.71      60.27       62.03       
C           125.58      60.73       60.72       
C           122.64      67.4        59.61       
C           122.02      68.11       60.57       
C           122.04      67.7        61.94       
C           122.76      66.53       62.32       
C           126.22      58.99       62.22       
C           126.53      58.13       61.13       
C           126.38      58.66       59.84       
C           125.95      59.93       59.61       
C           125.3       66.01       58.43       
C           123.03      64.95       57.83       
C           126.0       61.35       64.24       
C           123.67      60.66       63.65       
H           123.82      63.87       63.47       
H           124.99      62.66       58.7        
H           126.26      58.58       63.18       
H           125.85      60.23       58.56       
H           122.75      67.87       58.62       
H           122.85      66.16       63.36       
H           125.81      65.38       57.69       
H           125.13      66.92       57.89       
H           126.00649   66.18487    59.24141    
H           122.11      64.62       58.31       
H           122.73      65.87       57.34       
H           123.40598   64.38248    56.97873    
H           123.37      61.33       64.38       
H           123.92      59.69       64.17       
H           122.92111   60.50602    62.87311    
H           125.76      62.23       64.89       
H           125.85      60.51       64.89       
H           127.0372    61.50846    63.94469    
H           121.08      69.8        59.5        
H           127.17      56.19       62.01       
S           121.18      68.82       62.98       
C           121.21      69.32       60.44       
C           120.61      69.79       61.61       
C           127.47      52.1        58.72       
C           127.82      53.16       57.82       
C           127.06      52.57       59.95       
N           128.19      52.97       56.56       
N           128.25      55.39       57.23       
S           128.53      54.46       55.95       
H           126.3       54.28       61.21       
H           126.6       51.9        60.64       
C           126.81      53.91       60.26       
C           127.77      54.55       58.18       
C           127.3       54.9        59.44       
C           132.64      36.65       56.21       
C           132.64      37.54       55.2        
S           131.73      37.09       57.58       
C           129.91      42.95       55.82       
C           129.73      42.01       56.87       
C           128.99      42.36       57.99       
C           128.69      43.76       58.1        
C           128.85      44.68       57.03       
C           129.57      44.32       55.88       
C           128.58      44.55       59.41       
C           128.07      45.88       58.84       
C           128.32      45.97       57.5        
C           130.67      42.31       54.63       
C           130.94      40.92       55.19       
C           130.37      40.74       56.52       
C           127.61      46.97       59.54       
C           127.61      48.27       58.9        
C           127.95      48.3        57.58       
C           128.29      47.17       56.87       
C           131.65      39.86       54.64       
C           131.81      38.68       55.43       
C           131.37      38.61       56.77       
C           130.62      39.61       57.29       
C           127.55      43.85       60.35       
C           129.91      44.76       60.21       
C           129.74      42.28       53.4        
C           132.04      43.03       54.27       
H           129.62      44.95       55.05       
H           129.06      41.7        58.86       
H           132.19      39.87       53.65       
H           130.2       39.51       58.3        
H           127.33      46.83       60.61       
H           128.61      47.26       55.85       
H           127.88      42.85       60.6        
H           127.55      44.31       61.25       
H           126.54668   43.77441    59.9308     
H           130.5       45.49       59.64       
H           129.71      45.22       61.18       
H           130.44901   43.84298    60.448      
H           131.8       43.93       53.67       
H           132.66      42.31       53.73       
H           132.6138    43.26792    55.16568    
H           129.18      43.23       53.26       
H           130.28      42.07       52.49       
H           128.96597   41.51282    53.42055    
H           127.1       49.78       60.47       
H           133.2       37.4        54.27       
S           128.04      49.96       56.98       
C           127.28      49.62       59.39       
C           127.54      50.64       58.5        
C           133.42      32.22       55.78       
C           133.47      32.9        57.08       
C           133.28      33.13       54.77       
N           133.75      32.27       58.28       
N           133.34      34.64       58.45       
S           133.36      33.35       59.46       
H           133.02      35.19       53.99       
H           133.34      32.77       53.75       
C           133.22      34.59       54.9        
C           133.32      34.36       57.23       
C           133.15      35.23       56.11       
C           135.42      17.12       60.16       
C           134.09      17.38       60.08       
S           136.34      18.1        59.09       
C           132.46      22.68       57.45       
C           133.56      21.99       56.83       
C           134.46      22.6        55.95       
C           134.16      23.88       55.55       
C           133.08      24.56       56.13       
C           132.18      23.97       57.09       
C           135.1       24.85       54.81       
C           134.36      26.19       54.99       
C           133.18      25.98       55.8        
C           131.72      21.73       58.46       
C           132.65      20.47       58.32       
C           133.84      20.79       57.59       
C           134.75      27.48       54.53       
C           134.05      28.56       55.04       
C           132.99      28.35       55.95       
C           132.51      27.09       56.31       
C           132.56      19.3        59.09       
C           133.75      18.55       59.3        
C           134.93      18.98       58.61       
C           135.02      20.02       57.69       
C           136.47      24.98       55.58       
C           135.32      24.61       53.32       
C           131.64      22.32       59.86       
C           130.22      21.28       58.09       
H           131.47      24.6        57.58       
H           135.38      22.09       55.76       
H           131.67      19.07       59.7        
H           135.96      20.35       57.23       
H           135.66      27.62       53.97       
H           131.8       26.99       57.13       
H           137.13      24.06       55.43       
H           136.97      25.83       55.07       
H           136.37972   25.13046    56.65578    
H           134.41      24.9        52.68       
H           136.0       25.32       52.87       
H           135.59023   23.57884    53.09243    
H           129.48      21.86       58.49       
H           130.13      20.23       58.39       
H           130.01468   21.41452    57.028      
H           131.35      23.36       59.66       
H           130.84      21.94       60.47       
H           132.59536   22.4924     60.35564    
H           135.15      30.36       54.11       
H           133.44      16.75       60.69       
S           132.53      29.83       56.71       
C           134.4       29.98       54.84       
C           133.54      30.73       55.62       
C           137.99      14.03       62.03       
C           136.66      13.74       61.58       
C           138.36      15.34       61.83       
N           136.02      12.56       61.72       
N           134.76      14.21       60.38       
S           134.72      12.61       60.78       
H           137.95      17.27       61.05       
H           139.3       15.77       61.96       
C           137.52      16.29       61.14       
C           135.82      14.76       61.01       
C           136.21      16.1        60.83       
C           150.52      3.9         63.55       
C           150.79      5.24        63.47       
S           148.81      3.55        64.05       
C           146.35      9.39        64.29       
C           146.05      8.03        64.66       
C           144.77      7.64        64.89       
C           143.72      8.51        64.73       
C           143.94      9.84        64.27       
C           145.26      10.23       64.04       
C           142.33      8.09        64.23       
C           141.67      9.47        64.15       
C           142.71      10.43       64.04       
C           147.85      9.54        64.07       
C           148.3       8.06        64.01       
C           147.22      7.19        64.46       
C           140.41      9.76        63.75       
C           140.13      11.1        63.29       
C           141.16      12.03       63.26       
C           142.43      11.72       63.5        
C           149.55      7.45        63.81       
C           149.64      6.04        63.77       
C           148.47      5.31        64.13       
C           147.25      5.85        64.47       
C           142.59      7.35        62.92       
C           141.6       7.31        65.33       
C           148.26      10.22       62.71       
C           148.44      10.24       65.36       
H           145.5       11.18       63.63       
H           144.63      6.56        65.02       
H           150.46      8.07        63.65       
H           146.36      5.2         64.74       
H           139.58      9.1         63.93       
H           143.24      12.48       63.5        
H           142.88      6.34        63.13       
H           143.35      7.85        62.38       
H           141.71971   7.30126     62.26554    
H           142.12      6.4         65.43       
H           140.59      7.12        64.94       
H           141.48258   7.87507     66.25467    
H           149.46      10.49       65.18       
H           148.31      9.43        66.1        
H           147.96629   11.19439    65.58989    
H           149.21      10.52       62.85       
H           147.54      11.02       62.67       
H           148.16892   9.61749     61.80624    
H           137.95      11.03       62.81       
H           151.72      5.61        63.24       
S           140.61      13.62       62.8        
C           138.83      11.7        62.96       
C           138.95      13.05       62.59       
C           153.22      0.34        62.62       
C           153.5       1.75        62.15       
C           152.08      0.29        63.32       
N           154.65      2.09        61.5        
N           153.15      3.92        61.83       
S           154.58      3.68        61.09       
H           150.36      1.14        64.2        
H           151.86      -0.7        63.71       
C           151.32      1.4         63.68       
C           152.63      2.86        62.41       
C           151.39      2.68        63.2        
C           160.6       -14.15      60.7        
C           159.74      -13.85      61.75       
S           161.3       -12.72      60.03       
C           158.03      -8.31       63.25       
C           159.01      -8.35       62.26       
C           159.22      -7.23       61.44       
C           158.39      -6.13       61.61       
C           157.41      -6.13       62.6        
C           157.27      -7.18       63.49       
C           158.49      -4.85       60.83       
C           157.47      -3.96       61.59       
C           156.77      -4.81       62.53       
C           157.88      -9.7        63.88       
C           158.92      -10.51      63.12       
C           159.53      -9.72       62.12       
C           157.0       -2.76       61.16       
C           155.74      -2.28       61.68       
C           155.07      -3.14       62.58       
C           155.57      -4.36       62.98       
C           159.01      -11.86      63.11       
C           159.65      -12.46      62.04       
C           160.38      -11.68      61.11       
C           160.41      -10.26      61.24       
C           159.97      -4.52       61.07       
C           158.1       -5.07       59.31       
C           158.12      -9.67       65.38       
C           156.44      -10.31      63.68       
H           156.55      -7.07       64.23       
H           160.0       -7.23       60.65       
H           158.56      -12.48      63.92       
H           160.99      -9.6        60.56       
H           157.6       -2.13       60.49       
H           154.99      -4.98       63.68       
H           160.52      -5.24       60.63       
H           160.2       -4.48       62.13       
H           160.25105   -3.6029     60.55228    
H           158.96      -5.41       58.9        
H           157.73      -4.09       58.96       
H           157.33132   -5.83868    59.23023    
H           155.83      -9.82       64.42       
H           156.48      -11.32      63.72       
H           156.00744   -10.03791   62.71721    
H           157.64      -8.75       65.76       
H           157.59      -10.45      65.86       
H           159.13439   -9.61964    65.77569    
H           155.47      -0.18       60.77       
H           159.24      -14.65      62.3        
S           153.73      -2.23       63.19       
C           155.11      -1.01       61.39       
C           154.1       -0.8        62.25       
C           161.27      -17.67      58.15       
C           160.15      -17.65      59.05       
C           162.09      -16.56      58.2        
N           159.14      -18.56      59.13       
N           158.89      -16.63      60.72       
S           158.21      -18.07      60.37       
H           162.58      -14.65      58.98       
H           162.97      -16.5       57.59       
C           161.89      -15.47      59.09       
C           160.03      -16.58      60.01       
C           160.87      -15.42      60.0        
C           165.02      -24.41      43.51       
C           166.01      -23.7       44.17       
S           163.5       -24.32      44.43       
C           164.96      -21.8       50.0        
C           163.89      -22.4       49.3        
C           162.65      -22.49      49.97       
C           162.45      -22.02      51.26       
C           163.51      -21.33      51.91       
C           164.72      -21.25      51.27       
C           161.16      -22.03      52.02       
C           161.58      -21.26      53.23       
C           162.94      -20.85      53.15       
C           166.12      -21.59      48.99       
C           165.59      -22.32      47.72       
C           164.24      -22.72      47.94       
C           160.79      -20.9       54.27       
C           161.3       -20.05      55.25       
C           162.69      -19.71      55.16       
C           163.53      -20.08      54.09       
C           166.31      -22.5       46.55       
C           165.59      -23.14      45.54       
C           164.23      -23.51      45.78       
C           163.52      -23.23      46.91       
C           160.1       -21.19      51.25       
C           160.67      -23.42      52.4        
C           166.27      -20.07      48.84       
C           167.31      -22.19      49.68       
H           165.52      -20.74      51.76       
H           161.77      -22.96      49.5        
H           167.33      -22.17      46.46       
H           162.51      -23.52      47.07       
H           159.72      -21.25      54.3        
H           164.53      -19.73      53.89       
H           159.81      -21.66      50.36       
H           159.21      -21.17      51.86       
H           160.46471   -20.21974   50.91282    
H           161.46      -23.93      52.93       
H           159.91      -23.26      53.17       
H           160.22004   -24.02464   51.61257    
H           167.71      -21.55      50.5        
H           168.13      -22.25      49.02       
H           167.05397   -23.15011   50.12805    
H           167.15      -19.68      49.28       
H           165.43      -19.65      49.38       
H           166.25594   -19.70431   47.81327    
H           159.6       -19.4       56.55       
H           167.06      -23.79      43.89       
S           163.11      -18.62      56.5        
C           160.7       -19.36      56.35       
C           161.49      -18.58      57.02       
C           164.65      -26.15      39.41       
C           165.76      -25.36      39.86       
C           163.75      -26.31      40.4        
N           166.64      -24.96      39.02       
N           166.89      -23.96      41.27       
S           167.48      -23.74      39.75       
H           162.95      -25.88      42.36       
H           162.92      -26.98      40.27       
C           163.88      -25.8       41.73       
C           165.92      -24.84      41.18       
C           165.01      -25.05      42.18       
C           163.19      -35.32      25.66       
C           164.36      -34.78      26.12       
S           161.86      -34.56      26.47       
C           165.03      -31.1       30.76       
C           163.67      -31.33      30.32       
C           162.52      -30.81      31.03       
C           162.79      -30.08      32.23       
C           164.12      -29.95      32.71       
C           165.25      -30.43      31.98       
C           161.83      -29.06      32.96       
C           162.7       -28.69      34.16       
C           164.06      -29.21      33.94       
C           166.09      -31.72      29.81       
C           165.07      -32.4       28.91       
C           163.66      -32.24      29.22       
C           162.4       -27.87      35.2        
C           163.39      -27.66      36.21       
C           164.74      -28.15      35.98       
C           165.11      -28.83      34.79       
C           165.35      -33.21      27.86       
C           164.3       -33.82      27.16       
C           162.97      -33.59      27.44       
C           162.63      -32.73      28.47       
C           161.35      -27.81      32.07       
C           160.64      -29.8       33.65       
C           166.91      -30.6       29.15       
C           166.89      -32.73      30.7        
H           166.22      -30.26      32.25       
H           161.52      -30.86      30.59       
H           166.35      -33.5       27.59       
H           161.56      -32.6       28.7        
H           161.37      -27.48      35.28       
H           166.18      -29.14      34.57       
H           160.83      -28.11      31.18       
H           160.59      -27.22      32.71       
H           162.12687   -27.06138   31.91463    
H           161.08      -30.52      34.38       
H           160.01      -29.21      34.22       
H           159.98177   -30.41434   33.03566    
H           167.46      -33.38      30.0        
H           166.09      -33.3       31.14       
H           167.62138   -32.35714   31.41704    
H           167.46      -30.16      29.96       
H           166.23      -29.81      28.85       
H           167.56063   -30.86432   28.31638    
H           162.43      -26.28      37.68       
H           165.28      -35.2       25.7        
S           165.76      -27.67      37.33       
C           163.32      -26.9       37.44       
C           164.47      -26.78      38.11       
C           162.85      -38.37      22.51       
C           161.69      -37.97      23.28       
C           163.93      -37.56      22.7        
N           160.42      -38.42      23.13       
N           160.68      -36.97      25.18       
S           159.58      -37.91      24.42       
H           165.0       -36.12      23.86       
H           164.87      -37.77      22.21       
C           164.07      -36.62      23.75       
C           161.78      -37.07      24.46       
C           163.06      -36.39      24.69       
H           76.56       99.71       89.42       
H           162.93      -39.29      21.92       
