612

C           36.4        97.31       93.52       
C           36.27       96.74       92.29       
S           37.14       96.06       94.58       
C           37.65       91.14       90.55       
C           38.0        91.49       91.84       
C           38.73       90.55       92.65       
C           38.85       89.22       92.25       
C           38.36       88.91       90.97       
C           37.74       89.85       90.14       
C           39.55       88.03       92.91       
C           39.32       86.98       91.84       
C           38.56       87.53       90.71       
C           36.96       92.26       89.85       
C           36.95       93.32       90.96       
C           37.51       92.85       92.15       
C           39.66       85.58       91.81       
C           39.22       84.87       90.69       
C           38.55       85.47       89.58       
C           38.26       86.83       89.54       
C           36.51       94.64       90.94       
C           36.54       95.42       92.07       
C           37.05       94.88       93.28       
C           37.64       93.59       93.31       
C           41.07       88.31       93.14       
C           38.83       87.66       94.28       
C           37.84       92.7        88.62       
C           35.54       91.84       89.4        
H           37.47       89.57       89.12       
H           39.08       90.89       93.66       
H           36.07       95.08       90.0        
H           38.06       93.13       94.21       
H           40.21       85.03       92.62       
H           37.93       87.34       88.58       
H           41.11       89.18       93.87       
H           41.6        87.47       93.58       
H           41.6037     88.54876    92.22008    
H           37.75       87.73       94.13       
H           38.84       86.63       94.57       
H           39.04939    88.32525    95.11511    
H           35.53       91.43       88.43       
H           35.03       92.8        89.35       
H           34.97286    91.18884    90.06516    
H           37.68       91.97       87.83       
H           37.52       93.69       88.28       
H           38.89637    92.75828    88.88227    
H           39.78       82.7        91.19       
H           36.0        97.39       91.45       
S           38.36       84.27       88.26       
C           39.36       83.41       90.48       
C           39.12       82.97       89.19       
C           36.33       101.6       94.77       
C           36.51       101.26      93.42       
C           36.27       100.54      95.62       
N           36.48       102.11      92.33       
N           36.59       99.69       91.69       
S           36.47       101.16      90.95       
H           36.25       98.37       96.01       
H           36.3        100.69      96.74       
C           36.35       99.14       95.27       
C           36.53       99.88       93.02       
C           36.43       98.77       93.94       
C           35.03       116.79      101.91      
C           34.39       115.68      102.38      
S           35.84       116.42      100.39      
C           35.25       110.02      100.16      
C           35.76       111.07      99.38       
C           36.26       110.82      98.08       
C           36.32       109.57      97.62       
C           35.86       108.5       98.37       
C           35.4        108.74      99.7        
C           36.89       109.14      96.23       
C           36.51       107.63      96.22       
C           36.0        107.29      97.53       
C           34.59       110.58      101.43      
C           34.76       112.09      101.21      
C           35.54       112.3       100.02      
C           36.79       106.69      95.22       
C           36.56       105.32      95.51       
C           35.95       104.99      96.75       
C           35.74       105.94      97.8        
C           34.31       113.16      101.93      
C           34.66       114.49      101.61      
C           35.52       114.71      100.53      
C           35.84       113.62      99.6        
C           36.13       109.93      95.13       
C           38.44       109.23      96.11       
C           33.12       110.18      101.48      
C           35.44       110.11      102.66      
H           35.23       107.87      100.3       
H           36.41       111.66      97.38       
H           33.61       112.87      102.78      
H           36.42       113.78      98.64       
H           37.1        106.93      94.26       
H           35.19       105.71      98.72       
H           36.17       111.04      95.19       
H           36.71       109.56      94.26       
H           35.08546    109.65436   94.98492    
H           38.98       108.37      96.58       
H           38.75       109.24      95.06       
H           38.77644    110.21067   96.44644    
H           34.97       110.47      103.57      
H           36.46       110.52      102.58      
H           35.48891    109.03408   102.82768   
H           32.88       109.08      101.58      
H           32.56       110.66      102.27      
H           32.56821    110.5405    100.61186   
H           37.3        104.22      93.75       
H           33.77       115.65      103.28      
S           35.58       103.29      96.83       
C           36.78       104.11      94.71       
C           36.28       103.01      95.26       
C           35.39       120.8       103.55      
C           34.1        120.31      103.16      
C           36.41       119.92      103.37      
N           32.96       121.01      103.31      
N           32.69       118.67      102.22      
S           31.82       120.04      102.53      
H           37.19       118.0       102.86      
H           37.46       120.18      103.6       
C           36.26       118.59      102.91      
C           33.93       118.94      102.61      
C           35.05       118.14      102.36      
C           38.97       136.79      106.8       
C           38.22       136.5       105.69      
S           39.81       135.41      107.37      
C           36.95       130.59      104.49      
C           38.0        130.8       105.44      
C           38.58       129.65      106.07      
C           38.14       128.35      105.82      
C           37.14       128.2       104.82      
C           36.49       129.31      104.16      
C           38.83       127.01      106.09      
C           37.91       126.04      105.38      
C           36.94       126.74      104.6       
C           36.45       131.96      103.97      
C           37.37       132.97      104.69      
C           38.26       132.22      105.56      
C           38.03       124.65      105.41      
C           37.09       123.93      104.62      
C           36.11       124.66      103.9       
C           36.04       126.1       103.74      
C           37.38       134.32      104.61      
C           38.16       135.11      105.48      
C           39.02       134.34      106.32      
C           39.15       132.91      106.34      
C           40.27       126.91      105.53      
C           38.87       126.61      107.55      
C           36.55       132.11      102.47      
C           34.97       132.27      104.46      
H           35.69       129.15      103.47      
H           39.37       129.75      106.86      
H           36.71       134.86      103.94      
H           39.87       132.42      107.04      
H           38.74       124.2       106.08      
H           35.25       126.66      103.16      
H           40.89       127.61      106.09      
H           40.66       125.9       105.59      
H           40.35656    127.11198   104.46238   
H           37.84       126.58      107.88      
H           39.35       125.65      107.76      
H           39.3535     127.34608   108.19227   
H           34.62       133.27      104.23      
H           34.94       132.22      105.54      
H           34.19651    131.64553   104.01294   
H           35.77       132.59      101.99      
H           36.56       131.08      102.04      
H           37.5032     132.43941   102.05648   
H           37.34       121.79      105.27      
H           37.62       137.27      105.25      
S           35.0        123.53      103.17      
C           36.87       122.51      104.58      
C           35.81       122.16      103.9       
C           39.88       140.34      109.1       
C           38.52       139.95      108.94      
C           40.79       139.51      108.56      
N           37.43       140.46      109.6       
N           36.83       138.58      108.09      
S           36.07       139.7       109.01      
H           41.22       137.83      107.28      
H           41.82       139.62      108.79      
C           40.45       138.42      107.75      
C           38.15       138.81      108.08      
C           39.18       138.04      107.46      
C           48.13       148.06      121.37      
C           48.35       148.28      120.07      
S           46.71       147.02      121.57      
C           45.08       145.57      115.49      
C           44.66       145.37      116.78      
C           43.45       144.63      117.02      
C           42.74       144.2       115.91      
C           43.18       144.5       114.59      
C           44.35       145.17      114.4       
C           41.36       143.45      115.89      
C           41.22       143.14      114.35      
C           42.35       143.71      113.68      
C           46.35       146.38      115.51      
C           46.51       146.7       117.0       
C           45.56       146.0       117.74      
C           40.35       142.36      113.63      
C           40.51       142.21      112.31      
C           41.54       142.81      111.64      
C           42.52       143.58      112.32      
C           47.51       147.4       117.68      
C           47.54       147.47      119.13      
C           46.5        146.78      119.84      
C           45.52       146.05      119.16      
C           41.49       142.14      116.71      
C           40.13       144.3       116.27      
C           47.65       145.66      115.03      
C           46.03       147.49      114.56      
H           44.64       145.36      113.37      
H           43.08       144.43      118.03      
H           48.21       148.01      117.21      
H           44.71       145.66      119.7       
H           39.55       141.85      114.12      
H           43.36       144.1       111.82      
H           40.54       141.77      117.17      
H           42.16       142.22      117.55      
H           41.96993    141.32884   116.16247   
H           40.1        145.32      115.75      
H           39.22       143.84      115.92      
H           40.0529     144.51727   117.33534   
H           46.08       147.17      113.51      
H           45.0        147.74      114.78      
H           46.581      148.43037   114.57469   
H           47.72       145.79      113.94      
H           48.46       146.27      115.4       
H           47.68582    144.59983   115.28072   
H           38.94       140.7       111.81      
H           49.2        148.81      119.74      
S           41.54       142.46      109.91      
C           39.79       141.35      111.42      
C           40.36       141.23      110.19      
C           49.89       150.1       124.82      
C           49.66       150.76      123.58      
C           49.64       148.74      124.81      
N           49.93       152.03      123.36      
N           48.99       150.96      121.38      
S           49.39       152.47      121.88      
H           48.65       147.16      123.86      
H           49.65       148.21      125.76      
C           49.05       148.14      123.71      
C           49.09       150.12      122.44      
C           48.73       148.74      122.5       
C           57.25       155.05      138.44      
C           57.32       153.84      137.83      
S           56.49       156.22      137.4       
C           55.32       152.61      132.38      
C           54.97       153.94      132.75      
C           54.19       154.74      131.99      
C           53.55       154.16      130.99      
C           53.93       152.85      130.56      
C           54.9        152.1       131.22      
C           52.11       154.49      130.52      
C           52.02       153.42      129.47      
C           53.15       152.57      129.41      
C           56.07       151.86      133.43      
C           55.97       152.9       134.52      
C           55.6        154.18      134.04      
C           51.02       153.27      128.59      
C           51.09       152.22      127.63      
C           52.23       151.42      127.62      
C           53.31       151.61      128.48      
C           56.57       152.66      135.74      
C           56.71       153.83      136.55      
C           56.14       155.09      136.12      
C           55.58       155.28      134.88      
C           51.1        154.38      131.7       
C           52.12       155.92      129.83      
C           55.3        150.52      133.76      
C           57.54       151.43      133.08      
H           55.15       151.04      130.92      
H           53.95       155.75      132.3       
H           56.96       151.68      136.08      
H           55.31       156.27      134.5       
H           50.15       153.9       128.58      
H           54.23       151.05      128.55      
H           51.0        155.34      132.21      
H           51.5        153.7       132.43      
H           50.1201     153.96816   131.45858   
H           52.27       156.53      130.74      
H           51.13       156.16      129.31      
H           52.98305    156.08978   129.18625   
H           57.64       150.36      133.26      
H           58.24       151.98      133.65      
H           57.89948    151.63048   132.0707    
H           55.26       149.99      132.88      
H           55.87       149.81      134.37      
H           54.32006    150.75057   134.17792   
H           49.08       152.3       126.55      
H           57.71       152.97      138.29      
S           52.08       150.15      126.4       
C           50.06       151.84      126.67      
C           50.5        150.74      125.97      
C           57.0        156.36      142.62      
C           56.89       155.01      142.26      
C           57.23       157.19      141.55      
N           56.74       153.9       143.08      
N           56.78       153.25      140.69      
S           56.63       152.58      142.13      
H           57.43       157.6       139.52      
H           57.25       158.28      141.68      
C           57.3        156.76      140.25      
C           57.18       154.54      140.91      
C           57.34       155.4       139.84      
C           60.75       160.36      157.66      
C           61.52       160.93      156.6       
S           59.07       160.33      157.19      
C           59.38       160.68      151.01      
C           58.5        160.41      152.03      
C           57.25       159.73      151.72      
C           57.04       159.26      150.42      
C           57.99       159.59      149.37      
C           59.18       160.3       149.65      
C           56.23       158.05      149.93      
C           56.61       157.98      148.48      
C           57.63       158.9       148.15      
C           60.7        161.26      151.55      
C           60.37       161.33      153.01      
C           59.05       160.88      153.26      
C           56.12       157.17      147.44      
C           56.71       157.29      146.19      
C           57.69       158.22      145.98      
C           58.23       159.05      146.92      
C           61.26       161.5       154.05      
C           60.84       161.04      155.33      
C           59.49       160.7       155.52      
C           58.54       160.69      154.46      
C           56.68       156.7       150.7       
C           54.7        158.21      149.86      
C           61.79       160.19      151.28      
C           61.17       162.59      150.88      
H           60.04       160.29      149.03      
H           56.44       159.51      152.48      
H           62.34       161.67      153.98      
H           57.51       160.25      154.6       
H           55.44       156.33      147.64      
H           58.98       159.82      146.77      
H           56.42       156.66      151.74      
H           57.84       156.86      150.78      
H           56.33557    155.72997   150.34151   
H           54.63       159.05      149.23      
H           54.14       157.43      149.25      
H           54.19346    158.4596    150.79232   
H           60.6        162.74      149.98      
H           62.22       162.45      150.7       
H           61.00609    163.44519   151.53565   
H           61.97       160.12      150.19      
H           62.75       160.56      151.68      
H           61.62433    159.20316   151.71219   
H           55.69       155.81      145.03      
H           62.57       161.19      156.76      
S           58.37       158.12      144.33      
C           56.47       156.55      145.05      
C           57.08       156.92      143.95      
C           62.15       159.97      161.83      
C           61.01       159.22      161.32      
C           62.59       160.93      160.93      
N           60.31       158.31      162.0       
N           59.48       158.55      159.74      
S           59.13       157.69      161.06      
H           62.56       161.79      159.06      
H           63.31       161.65      161.16      
C           62.06       161.05      159.7       
C           60.5        159.34      160.04      
C           61.09       160.29      159.12      
C           71.6        155.02      174.46      
C           71.96       155.81      173.4       
S           69.85       154.82      174.35      
C           68.27       158.34      169.29      
C           67.61       157.79      170.38      
C           66.26       157.67      170.34      
C           65.56       158.16      169.25      
C           66.23       158.86      168.23      
C           67.58       158.88      168.19      
C           64.17       157.75      168.83      
C           64.05       158.46      167.47      
C           65.28       159.14      167.14      
C           69.77       158.33      169.52      
C           69.9        157.51      170.75      
C           68.63       157.18      171.25      
C           63.0        158.46      166.58      
C           63.12       159.06      165.29      
C           64.44       159.58      164.96      
C           65.43       159.73      165.87      
C           71.06       157.2       171.45      
C           70.98       156.38      172.58      
C           69.71       155.86      172.95      
C           68.5        156.3       172.35      
C           64.05       156.2       168.62      
C           63.0        158.37      169.62      
C           70.38       157.66      168.23      
C           70.4        159.76      169.72      
H           68.14       159.1       167.28      
H           65.75       157.12      171.09      
H           72.02       157.51      171.14      
H           67.53       155.97      172.73      
H           62.02       158.03      166.9       
H           66.38       160.2       165.64      
H           63.92       155.52      169.37      
H           63.22       156.08      167.86      
H           64.87866    155.83568   168.0128    
H           62.94       159.46      169.48      
H           61.96       158.11      169.19      
H           63.06429    158.11283   170.67727   
H           70.47       160.37      168.83      
H           71.41       159.57      170.04      
H           69.96247    160.24056   170.59506   
H           70.35       158.34      167.3       
H           71.39       157.5       168.48      
H           69.99374    156.66275   168.01931   
H           61.05       159.1       164.35      
H           73.0        155.87      173.16      
S           64.32       160.23      163.35      
C           62.11       159.37      164.3       
C           62.66       159.83      163.15      
C           73.89       151.75      176.33      
C           73.14       152.68      177.1       
C           73.82       152.04      175.02      
N           73.01       152.66      178.47      
N           71.8        154.52      177.43      
S           72.24       154.03      178.93      
H           73.13       153.11      173.3       
H           74.29       151.39      174.27      
C           73.01       153.05      174.36      
C           72.45       153.82      176.51      
C           72.44       154.02      175.11      
C           76.29       135.82      175.15      
C           77.15       136.68      174.45      
S           75.26       136.52      176.35      
C           76.92       142.55      175.69      
C           76.01       141.76      176.38      
C           75.11       142.28      177.35      
C           75.02       143.66      177.52      
C           75.96       144.46      176.85      
C           76.94       143.89      176.0       
C           74.07       144.54      178.37      
C           74.45       145.96      177.91      
C           75.58       145.85      177.07      
C           77.99       141.67      175.07      
C           77.24       140.35      175.06      
C           76.15       140.36      176.02      
C           73.88       147.15      178.3       
C           74.34       148.29      177.62      
C           75.55       148.23      176.81      
C           76.16       147.0       176.55      
C           77.5        139.19      174.38      
C           76.87       138.03      174.89      
C           75.95       138.09      175.99      
C           75.59       139.25      176.53      
C           72.54       144.23      178.12      
C           74.41       144.36      179.9       
C           78.36       142.06      173.59      
C           79.29       141.37      175.9       
H           77.77       144.5       175.72      
H           74.52       141.57      177.91      
H           78.35       139.09      173.64      
H           74.93       139.28      177.39      
H           72.98       147.17      178.86      
H           77.01       147.0       175.77      
H           72.21       143.2       178.48      
H           71.84       144.94      178.54      
H           72.30524    144.27833   177.05668   
H           75.42       144.74      180.1       
H           73.69       144.96      180.42      
H           74.17574    143.36785   180.28583   
H           79.81       140.67      175.33      
H           79.18       140.99      176.88      
H           79.90737    142.25702   176.04192   
H           78.89       142.97      173.44      
H           79.0        141.28      173.15      
H           77.50178    142.17959   172.92875   
H           72.83       149.78      178.28      
H           77.98       136.3       173.85      
S           75.79       149.79      176.02      
C           73.75       149.59      177.71      
C           74.33       150.4       176.75      
C           75.68       131.59      174.68      
C           76.99       132.08      174.86      
C           74.64       132.49      174.96      
N           78.07       131.26      174.82      
N           78.5        133.84      175.14      
S           79.27       132.39      175.11      
H           73.9        134.48      175.07      
H           73.67       132.07      175.17      
C           74.85       133.87      175.03      
C           77.23       133.5       174.98      
C           76.1        134.38      175.03      
C           66.92       119.53      180.77      
C           67.34       120.59      181.51      
S           67.07       119.72      179.04      
C           71.39       124.33      178.97      
C           70.55       123.7       178.06      
C           70.82       123.69      176.68      
C           71.78       124.53      176.15      
C           72.64       125.21      177.08      
C           72.4        125.03      178.49      
C           72.25       124.85      174.75      
C           73.16       126.01      174.99      
C           73.49       126.08      176.37      
C           70.91       123.97      180.42      
C           69.62       123.19      180.1       
C           69.52       122.87      178.75      
C           73.58       126.99      174.12      
C           74.38       128.02      174.61      
C           74.79       127.94      175.95      
C           74.43       126.91      176.82      
C           68.75       122.64      181.04      
C           68.03       121.5       180.64      
C           67.97       121.2       179.28      
C           68.66       121.87      178.27      
C           72.89       123.55      174.17      
C           71.06       125.27      173.86      
C           71.97       123.06      181.05      
C           70.53       125.28      181.27      
H           72.96       125.72      179.19      
H           70.28       123.05      176.03      
H           68.85       122.9       182.09      
H           68.59       121.55      177.23      
H           73.12       127.1       173.16      
H           74.75       126.92      177.85      
H           72.13       122.75      174.25      
H           73.6        123.3       174.96      
H           73.41987    123.69641   173.22878   
H           70.55       124.32      173.79      
H           71.45       125.51      172.84      
H           70.45309    126.04509   174.32798   
H           70.14       124.92      182.22      
H           69.73       125.72      180.73      
H           71.34479    125.98241   181.4456    
H           72.89       123.66      181.11      
H           72.24       122.28      180.3       
H           71.72133    122.59108   182.00204   
H           74.46       129.56      172.95      
H           67.23       120.71      182.58      
S           75.68       129.4       176.36      
C           74.78       129.26      173.93      
C           75.38       130.13      174.83      
C           65.87       115.84      182.97      
C           66.62       115.81      181.72      
C           65.33       117.09      183.21      
N           67.25       114.78      181.21      
N           67.67       116.74      179.87      
S           68.0        115.14      179.79      
H           65.29       119.16      182.91      
H           64.75       117.3       184.14      
C           65.66       118.24      182.49      
C           66.85       116.96      180.89      
C           66.43       118.25      181.38      
C           64.77       106.72      196.8       
C           63.79       107.48      196.26      
S           66.24       106.89      195.88      
C           64.35       110.56      191.17      
C           65.53       110.05      191.65      
C           66.74       110.17      190.93      
C           66.77       110.92      189.77      
C           65.5        111.45      189.28      
C           64.29       111.24      189.92      
C           67.94       111.4       188.87      
C           67.13       112.29      187.88      
C           65.72       112.24      188.09      
C           63.1        110.04      191.92      
C           63.82       109.6       193.19      
C           65.19       109.36      192.89      
C           67.64       112.91      186.78      
C           66.83       113.55      185.87      
C           65.4        113.4       186.12      
C           64.88       112.73      187.2       
C           63.38       109.08      194.39      
C           64.14       108.16      195.1       
C           65.5        107.96      194.77      
C           66.08       108.66      193.66      
C           68.97       112.25      189.68      
C           68.55       110.3       188.04      
C           62.15       111.21      192.26      
C           62.29       108.87      191.26      
H           63.38       111.54      189.43      
H           67.65       109.74      191.33      
H           62.39       109.27      194.74      
H           67.13       108.5       193.5       
H           68.68       112.85      186.58      
H           63.74       112.65      187.28      
H           69.49       111.57      190.36      
H           69.6        112.55      188.85      
H           68.59194    113.10063   190.24709   
H           67.76       109.94      187.4       
H           69.4        110.73      187.61      
H           68.93258    109.45833   188.61734   
H           61.35       109.27      190.88      
H           61.94       108.16      192.02      
H           62.85299    108.24287   190.56873   
H           61.84       111.66      191.35      
H           61.28       110.75      192.89      
H           62.54279    111.93246   192.97545   
H           67.98       114.55      184.17      
H           62.78       107.49      196.67      
S           64.53       114.28      184.91      
C           67.03       114.34      184.65      
C           65.93       114.81      184.04      
C           64.86       103.68      199.9       
C           63.65       104.22      199.41      
C           65.93       104.18      199.27      
N           62.48       103.72      199.81      
N           62.25       105.58      198.19      
S           61.33       104.57      199.04      
H           66.91       105.48      197.89      
H           66.92       103.81      199.53      
C           65.88       105.19      198.3       
C           63.55       105.3       198.45      
C           64.74       105.71      197.83      
H           39.2        81.95       88.77       
H           64.89       102.88      200.65      
