612

C           98.9        17.98       4.57        
C           99.65       16.83       4.53        
S           99.5        19.09       3.37        
C           104.21      15.75       0.64        
C           103.53      16.97       0.38        
C           103.66      17.71       -0.75       
C           104.68      17.38       -1.63       
C           105.39      16.17       -1.38       
C           105.15      15.27       -0.33       
C           105.09      17.96       -3.0        
C           106.03      16.91       -3.44       
C           106.33      15.9        -2.45       
C           103.71      15.09       1.92        
C           102.57      16.0        2.22        
C           102.54      17.16       1.46        
C           106.79      16.84       -4.65       
C           107.85      15.95       -4.71       
C           108.02      14.93       -3.77       
C           107.24      14.88       -2.64       
C           101.76      15.86       3.38        
C           100.77      16.81       3.64        
C           100.66      17.95       2.78        
C           101.58      18.13       1.73        
C           103.89      18.03       -4.0        
C           105.92      19.3        -2.88       
C           103.2       13.63       1.73        
C           104.76      15.3        3.06        
H           105.68      14.29       -0.23       
H           103.05      18.56       -0.97       
H           101.7       14.97       3.97        
H           101.6       19.09       1.2         
H           106.56      17.51       -5.49       
H           107.5       14.06       -1.95       
H           103.15      18.78       -3.82       
H           104.29      18.23       -5.03       
H           103.49613   17.01424    -4.03455    
H           106.76      19.26       -2.17       
H           106.43      19.57       -3.77       
H           105.30728   20.16208    -2.61639    
H           104.58      14.53       3.86        
H           104.66      16.25       3.57        
H           105.77246   15.06798    2.72955     
H           104.08      13.06       1.55        
H           102.78      13.36       2.72        
H           102.51072   13.53052    0.89149     
H           108.8       16.36       -6.75       
H           99.52       15.95       5.25        
S           109.38      13.91       -4.17       
C           108.78      15.79       -5.83       
C           109.59      14.72       -5.66       
C           95.09       18.63       6.69        
C           96.19       19.62       6.63        
C           95.43       17.52       6.0         
N           96.12       20.8        7.24        
N           98.37       20.41       6.2         
S           97.63       21.45       7.21        
H           96.84       16.29       4.94        
H           94.71       16.76       5.91        
C           96.72       17.21       5.55        
C           97.46       19.41       6.04        
C           97.71       18.17       5.45        
C           78.77       17.02       9.61        
C           79.55       16.3        8.75        
S           79.67       18.3        10.39       
C           85.57       17.11       8.27        
C           84.99       18.13       9.04        
C           85.78       19.07       9.64        
C           87.14       19.22       9.3         
C           87.7        18.17       8.58        
C           86.92       17.08       8.04        
C           88.12       20.39       9.45        
C           89.39       19.78       8.73        
C           89.17       18.39       8.51        
C           84.57       16.16       7.67        
C           83.28       16.75       8.14        
C           83.55       17.84       9.06        
C           90.65       20.35       8.6         
C           91.76       19.56       8.19        
C           91.4        18.2        7.8         
C           90.16       17.6        8.04        
C           82.03       16.28       7.98        
C           80.95       16.76       8.76        
C           81.19       17.83       9.68        
C           82.48       18.37       9.81        
C           87.56       21.64       8.73        
C           88.45       20.63       10.98       
C           84.66       16.25       6.08        
C           84.88       14.74       8.23        
H           87.41       16.29       7.57        
H           85.29       19.82       10.28       
H           81.83       15.49       7.25        
H           82.58       19.21       10.5        
H           90.79       21.38       8.76        
H           90.01       16.53       7.78        
H           86.64       21.93       9.25        
H           88.24       22.43       8.89        
H           87.30761    21.45772    7.68541     
H           89.01       19.87       11.36       
H           89.12       21.48       10.93       
H           87.64761    20.81236    11.69485    
H           85.92       14.42       8.21        
H           84.21       14.16       7.7         
H           84.54316    14.58622    9.25518     
H           85.65       15.92       5.79        
H           83.92       15.5        5.66        
H           84.50032    17.25162    5.6808      
H           93.61       20.83       8.0         
H           79.28       15.51       8.08        
S           92.71       17.36       7.15        
C           93.12       19.83       7.82        
C           93.71       18.81       7.17        
C           74.55       16.68       10.79       
C           75.02       15.96       9.65        
C           75.54       17.47       11.34       
N           74.3        15.03       9.03        
N           76.63       15.27       8.19        
S           75.31       14.37       7.93        
H           77.48       18.18       11.66       
H           75.35       17.98       12.27       
C           76.86       17.57       10.93       
C           76.4        16.06       9.22        
C           77.37       16.97       9.84        
C           59.85       19.2        17.68       
C           60.81       20.11       17.47       
S           60.55       17.65       17.25       
C           66.39       18.84       15.53       
C           65.52       17.79       15.52       
C           65.77       16.57       14.84       
C           66.99       16.49       14.14       
C           67.88       17.56       14.27       
C           67.64       18.77       14.97       
C           67.5        15.49       13.1        
C           68.87       15.99       12.91       
C           69.08       17.22       13.58       
C           65.82       20.16       16.15       
C           64.45       19.61       16.54       
C           64.35       18.21       16.29       
C           69.8        15.45       12.08       
C           71.06       16.14       12.0        
C           71.26       17.37       12.76       
C           70.25       17.9        13.52       
C           63.35       20.22       16.95       
C           62.13       19.58       17.18       
C           62.15       18.2        17.01       
C           63.26       17.51       16.58       
C           67.35       14.03       13.54       
C           66.65       15.72       11.82       
C           66.54       20.74       17.37       
C           65.57       21.24       15.05       
H           68.41       19.52       15.07       
H           65.07       15.74       14.81       
H           63.32       21.31       17.01       
H           63.21       16.43       16.42       
H           69.56       14.47       11.64       
H           70.43       18.76       14.15       
H           66.28       13.75       13.47       
H           67.79       13.3        12.91       
H           67.69385    13.88673    14.56437    
H           66.62       16.82       11.76       
H           67.31       15.25       11.04       
H           65.60194    15.42055    11.82       
H           64.84       22.03       15.43       
H           65.04       20.8        14.18       
H           66.45248    21.81646    14.77245    
H           67.52       21.13       17.05       
H           66.14       21.63       17.76       
H           66.51214    20.00876    18.17784    
H           72.27       14.91       10.68       
H           60.57       21.11       17.6        
S           72.95       17.9        12.62       
C           72.21       15.79       11.31       
C           73.27       16.63       11.49       
C           55.61       19.71       18.9        
C           56.41       20.9        18.66       
C           56.31       18.51       18.88       
N           55.98       22.25       18.66       
N           58.36       21.96       17.97       
S           57.27       23.15       18.2        
H           57.97       17.24       18.35       
H           55.8        17.65       19.07       
C           57.61       18.35       18.45       
C           57.73       20.77       18.06       
C           58.4        19.43       18.02       
C           42.49       17.41       28.05       
C           42.96       16.45       27.27       
S           42.91       19.03       27.48       
C           46.89       17.52       22.79       
C           46.44       18.66       23.47       
C           46.92       19.98       23.28       
C           48.07       20.03       22.47       
C           48.65       18.84       21.97       
C           47.99       17.6        22.01       
C           48.86       21.35       21.99       
C           50.05       20.62       21.29       
C           49.86       19.24       21.25       
C           46.13       16.26       23.08       
C           45.22       16.87       24.24       
C           45.38       18.29       24.41       
C           51.23       21.17       20.9        
C           52.24       20.32       20.43       
C           52.0        18.94       20.22       
C           50.77       18.36       20.6        
C           44.35       16.18       25.14       
C           43.72       16.95       26.14       
C           43.86       18.33       26.21       
C           44.71       19.01       25.35       
C           47.88       22.19       21.12       
C           49.31       22.26       23.22       
C           45.39       15.77       21.81       
C           46.89       15.16       23.8        
H           48.42       16.74       21.49       
H           46.42       20.82       23.74       
H           44.32       15.08       25.08       
H           44.95       20.07       25.38       
H           51.48       22.21       21.1        
H           50.62       17.27       20.63       
H           47.63       23.13       21.58       
H           46.97       21.68       21.18       
H           48.22594    22.26928    20.0894     
H           48.55       22.89       23.63       
H           50.03       23.06       22.92       
H           49.91561    21.71852    23.94673    
H           47.66       14.85       23.2        
H           46.24       14.31       24.05       
H           47.42737    15.39333    24.71918    
H           46.03       14.93       21.53       
H           45.39       16.34       20.86       
H           44.3426     15.53646    22.00108    
H           53.91       21.61       20.12       
H           42.81       15.43       27.49       
S           53.38       18.19       19.46       
C           53.55       20.66       20.0        
C           54.27       19.68       19.48       
C           40.79       17.44       32.11       
C           41.25       16.22       31.5        
C           40.78       18.49       31.23       
N           41.25       15.03       32.13       
N           42.54       15.04       29.99       
S           42.14       14.03       31.2        
H           41.26       19.45       29.44       
H           40.42       19.44       31.5        
C           41.34       18.44       29.94       
C           41.87       16.16       30.16       
C           41.93       17.37       29.4        
C           41.04       20.23       48.29       
C           40.98       21.22       47.38       
S           40.38       18.74       47.6        
C           40.39       20.15       41.38       
C           40.04       19.07       42.2        
C           39.51       17.91       41.72       
C           39.56       17.81       40.37       
C           40.0        18.8        39.51       
C           40.34       20.06       40.02       
C           39.18       16.57       39.56       
C           39.6        16.9        38.11       
C           39.99       18.29       38.13       
C           40.75       21.41       42.16       
C           40.51       20.87       43.56       
C           40.12       19.48       43.59       
C           39.35       16.3        36.9        
C           39.63       16.95       35.66       
C           40.12       18.24       35.78       
C           40.23       19.0        36.92       
C           40.71       21.51       44.81       
C           40.7        20.77       46.0        
C           40.35       19.42       45.96       
C           39.91       18.78       44.81       
C           39.92       15.38       40.22       
C           37.58       16.41       39.5        
C           42.17       21.94       41.99       
C           39.71       22.48       41.9        
H           40.65       20.91       39.39       
H           39.14       17.14       42.37       
H           41.17       22.53       44.87       
H           39.63       17.73       44.84       
H           38.91       15.28       36.97       
H           40.54       20.09       36.92       
H           39.18       14.79       40.74       
H           40.7        15.75       40.93       
H           40.45167    14.79085    39.47279    
H           37.28       16.26       40.54       
H           37.24       15.59       38.89       
H           37.0536     17.32194    39.21826    
H           39.93       22.78       40.89       
H           39.72       23.4        42.5        
H           38.66857    22.15956    41.92913    
H           42.32       22.04       40.93       
H           42.15       22.87       42.39       
H           42.93942    21.26022    42.35604    
H           39.49       15.61       33.91       
H           41.37       22.22       47.55       
S           40.61       18.99       34.3        
C           39.62       16.54       34.3        
C           40.23       17.5        33.45       
C           42.92       19.92       52.22       
C           42.79       21.19       51.57       
C           42.19       18.95       51.55       
N           43.29       22.36       52.01       
N           42.04       22.7        49.92       
S           42.83       23.58       50.99       
H           41.18       18.14       49.93       
H           42.09       17.97       51.93       
C           41.58       19.04       50.35       
C           42.11       21.38       50.3        
C           41.47       20.28       49.69       
C           47.78       14.78       67.14       
C           48.14       14.13       66.07       
S           46.65       16.02       66.76       
C           46.78       16.0        60.42       
C           46.24       16.77       61.48       
C           45.5        17.96       61.21       
C           45.28       18.33       59.9        
C           45.82       17.54       58.89       
C           46.63       16.43       59.16       
C           44.62       19.67       59.5        
C           44.83       19.45       58.01       
C           45.41       18.16       57.65       
C           47.98       15.15       60.93       
C           47.57       15.08       62.43       
C           46.66       16.16       62.72       
C           44.15       20.2        57.03       
C           44.09       19.73       55.74       
C           44.78       18.56       55.33       
C           45.49       17.78       56.32       
C           48.06       14.28       63.46       
C           47.77       14.68       64.79       
C           46.9        15.73       65.05       
C           46.33       16.48       64.02       
C           43.12       19.73       59.99       
C           45.35       21.01       59.87       
C           47.95       13.78       60.24       
C           49.4        15.84       60.94       
H           47.03       15.78       58.41       
H           45.02       18.49       62.02       
H           48.64       13.42       63.33       
H           45.71       17.32       64.3        
H           43.67       21.14       57.34       
H           45.88       16.82       56.09       
H           42.79       20.64       59.57       
H           43.09       19.9        61.07       
H           42.50035    18.92933    59.58618    
H           45.36       21.12       60.93       
H           44.78       21.87       59.64       
H           46.35921    21.07534    59.46341    
H           50.24       15.19       61.18       
H           49.39       16.65       61.71       
H           49.67171    16.23327    59.9604     
H           48.02       13.87       59.14       
H           48.91       13.38       60.49       
H           47.14422    13.13393    60.58844    
H           43.23       21.44       54.64       
H           48.79       13.27       66.17       
S           44.54       18.16       53.64       
C           43.55       20.4        54.62       
C           43.57       19.65       53.48       
C           48.78       14.36       71.47       
C           49.41       13.52       70.59       
C           47.98       15.31       70.92       
N           50.18       12.5        70.84       
N           49.78       12.7        68.47       
S           50.55       11.67       69.48       
H           46.87       15.98       69.16       
H           47.42       15.96       71.56       
C           47.61       15.3        69.52       
C           49.15       13.61       69.17       
C           48.16       14.48       68.56       
C           41.26       7.14        82.13       
C           41.18       8.51        82.3        
S           42.74       6.73        81.35       
C           45.26       12.25       79.99       
C           45.77       10.97       80.29       
C           46.95       10.44       79.87       
C           47.66       11.19       78.96       
C           47.2        12.51       78.62       
C           46.09       13.08       79.18       
C           48.95       10.84       78.11       
C           48.86       12.02       77.11       
C           47.98       13.03       77.56       
C           44.03       12.56       80.89       
C           43.67       11.11       81.15       
C           44.7        10.25       80.8        
C           49.58       12.09       75.98       
C           49.24       13.14       75.1        
C           48.29       14.17       75.48       
C           47.75       14.15       76.74       
C           42.56       10.59       81.77       
C           42.33       9.19        81.83       
C           43.34       8.33        81.36       
C           44.57       8.87        80.94       
C           50.34       10.86       78.8        
C           48.77       9.5         77.35       
C           44.54       13.38       82.13       
C           42.87       13.31       80.1        
H           45.94       14.14       78.92       
H           47.2        9.39        79.92       
H           41.72       11.3        81.99       
H           45.31       8.22        80.61       
H           50.23       11.26       75.67       
H           46.96       14.85       76.97       
H           51.14       10.53       78.1        
H           50.43       10.06       79.56       
H           50.61611    11.77552    79.32315    
H           48.92       8.64        78.01       
H           49.51       9.33        76.55       
H           47.75652    9.36901     76.9708     
H           42.06       13.45       80.75       
H           42.6        12.68       79.32       
H           43.09804    14.31041    79.7322     
H           44.68       14.43       81.96       
H           45.48       13.05       82.47       
H           43.88486    13.31375    82.99862    
H           49.98       12.33       73.3        
H           40.3        9.01        82.64       
S           47.71       14.99       74.0        
C           49.52       13.2        73.7        
C           48.87       14.17       72.96       
C           38.43       3.74        82.75       
C           38.24       5.04        83.36       
C           39.53       3.75        81.9        
N           37.14       5.43        84.12       
N           38.85       7.28        83.91       
S           37.37       6.91        84.65       
H           41.04       4.68        80.85       
H           39.73       2.9         81.21       
C           40.36       4.84        81.66       
C           39.12       6.16        83.14       
C           40.3        6.03        82.35       
C           28.73       -9.6        84.18       
C           28.38       -8.37       84.63       
S           30.33       -9.53       83.51       
C           32.0        -3.52       84.36       
C           32.56       -4.68       83.8        
C           33.91       -4.81       83.31       
C           34.61       -3.64       83.35       
C           34.03       -2.44       83.86       
C           32.78       -2.38       84.43       
C           35.92       -3.41       82.64       
C           36.16       -1.93       83.0        
C           35.03       -1.42       83.66       
C           30.51       -3.71       84.73       
C           30.44       -5.25       84.67       
C           31.52       -5.73       83.87       
C           37.29       -1.15       82.72       
C           37.15       0.23        82.94       
C           36.03       0.74        83.6        
C           34.97       -0.04       84.04       
C           29.36       -6.05       84.93       
C           29.36       -7.4        84.48       
C           30.51       -7.85       83.8        
C           31.62       -7.01       83.46       
C           36.99       -4.37       83.23       
C           35.78       -3.62       81.11       
C           30.24       -3.22       86.14       
C           29.69       -2.98       83.61       
H           32.34       -1.44       84.74       
H           34.39       -5.73       82.86       
H           28.55       -5.74       85.6        
H           32.44       -7.35       82.82       
H           38.17       -1.61       82.35       
H           34.04       0.36        84.56       
H           37.87       -4.28       82.58       
H           36.66       -5.4        83.2        
H           37.30258    -4.12846    84.2459     
H           35.74       -4.71       80.87       
H           36.64       -3.15       80.63       
H           34.93233    -3.07608    80.69323    
H           29.41       -1.94       83.78       
H           28.71       -3.51       83.48       
H           30.13853    -2.84255    82.62612    
H           30.25       -2.14       86.24       
H           29.3        -3.55       86.63       
H           30.95891    -3.62572    86.8518     
H           39.01       1.06        82.15       
H           27.41       -8.18       85.12       
S           36.16       2.47        83.76       
C           38.1        1.22        82.6        
C           37.71       2.5         82.92       
C           27.26       -13.62      84.93       
C           26.97       -12.53      85.84       
C           27.82       -13.3       83.74       
N           26.44       -12.63      87.08       
N           27.03       -10.35      86.62       
S           26.16       -11.21      87.74       
H           28.89       -11.83      82.64       
H           27.97       -13.97      82.84       
C           28.25       -11.99      83.53       
C           27.49       -11.22      85.68       
C           28.14       -10.93      84.43       
C           29.73       -29.32      89.52       
C           30.22       -28.82      88.35       
S           28.6        -28.25      90.28       
C           28.78       -23.21      86.33       
C           28.34       -23.48      87.62       
C           27.45       -22.63      88.28       
C           27.16       -21.42      87.72       
C           27.75       -21.1       86.46       
C           28.55       -22.01      85.75       
C           26.22       -20.33      88.23       
C           26.41       -19.3       87.12       
C           27.25       -19.76      86.08       
C           29.66       -24.38      85.69       
C           29.58       -25.36      86.86       
C           28.7        -24.88      87.94       
C           25.89       -17.96      87.16       
C           26.38       -17.03      86.22       
C           27.22       -17.61      85.14       
C           27.53       -18.99      84.98       
C           30.12       -26.66      86.94       
C           29.7        -27.54      88.03       
C           28.81       -27.0       89.0        
C           28.27       -25.72      88.98       
C           24.8        -20.78      88.26       
C           26.7        -19.78      89.62       
C           28.89       -24.94      84.42       
C           31.14       -23.86      85.42       
H           29.1        -21.81      84.88       
H           26.96       -23.01      89.16       
H           30.84       -27.03      86.2        
H           27.68       -25.37      89.78       
H           25.18       -17.59      87.92       
H           28.2        -19.34      84.2        
H           24.71       -21.71      88.81       
H           24.2        -19.95      88.62       
H           24.46127    -20.9818    87.24381    
H           27.77       -19.61      89.67       
H           26.24       -18.83      89.63       
H           26.37794    -20.28815   90.52894    
H           30.91       -23.25      84.56       
H           31.54       -23.3       86.24       
H           31.9368     -24.57855   85.22791    
H           29.57       -25.45      83.77       
H           28.69       -24.09      83.82       
H           27.92304    -25.38409   84.65637    
H           25.66       -15.04      86.92       
H           30.89       -29.37      87.8        
S           27.72       -16.25      84.17       
C           26.2        -15.63      86.2        
C           26.92       -14.99      85.15       
C           30.76       -33.27      91.34       
C           30.11       -32.29      92.14       
C           30.99       -32.86      90.06       
N           29.63       -32.54      93.32       
N           28.97       -30.29      92.51       
S           28.84       -31.2       93.86       
H           30.75       -31.42      88.51       
H           31.46       -33.61      89.39       
C           30.63       -31.57      89.55       
C           29.68       -30.95      91.64       
C           30.03       -30.57      90.26       
C           37.03       -47.94      96.07       
C           36.92       -47.64      94.76       
S           36.32       -46.66      97.06       
C           35.23       -41.94      93.06       
C           35.47       -42.07      94.42       
C           35.1        -41.08      95.31       
C           34.48       -39.95      94.88       
C           34.22       -39.84      93.52       
C           34.6        -40.79      92.56       
C           34.26       -38.65      95.54       
C           33.63       -37.8       94.44       
C           33.63       -38.52      93.2        
C           35.5        -43.28      92.31       
C           36.15       -44.16      93.43       
C           35.84       -43.51      94.65       
C           33.18       -36.54      94.55       
C           32.58       -36.01      93.32       
C           32.7        -36.78      92.08       
C           33.26       -38.06      91.96       
C           36.58       -45.5       93.29       
C           36.6        -46.26      94.48       
C           36.28       -45.59      95.66       
C           35.95       -44.25      95.81       
C           33.27       -38.82      96.78       
C           35.63       -38.06      95.98       
C           34.15       -43.86      91.74       
C           36.62       -43.31      91.28       
H           34.3        -40.64      91.5        
H           35.35       -41.22      96.4        
H           36.81       -45.88      92.32       
H           35.61       -43.87      96.79       
H           33.08       -35.98      95.46       
H           33.37       -38.64      91.04       
H           33.4        -38.04      97.57       
H           33.46       -39.73      97.38       
H           32.21908    -38.81295   96.49082    
H           35.99       -38.62      96.81       
H           35.57       -37.1       96.41       
H           36.45079    -38.15527   95.26914    
H           36.53       -44.3       90.79       
H           37.57       -43.14      91.72       
H           36.47937    -42.59277   90.47136    
H           33.87       -43.26      90.93       
H           34.34       -44.8       91.25       
H           33.42272    -43.96591   92.54495    
H           31.78       -34.04      94.01       
H           37.11       -48.35      93.97       
S           31.72       -35.94      90.89       
C           31.86       -34.77      93.15       
C           31.42       -34.52      91.86       
C           37.64       -51.86      98.33       
C           37.64       -51.77      96.84       
C           37.42       -50.58      98.86       
N           37.64       -52.88      96.1        
N           37.28       -50.75      94.73       
S           37.35       -52.36      94.57       
H           36.94       -48.49      98.71       
H           37.56       -50.45      99.88       
C           37.14       -49.39      98.12       
C           37.44       -50.56      96.07       
C           37.22       -49.25      96.73       
H           110.26      14.43       -6.46       
H           38.16       -52.65      98.89       
