612

C           99.42       38.28       47.29       
C           99.07       39.08       46.2        
S           99.91       39.27       48.67       
C           99.09       45.24       46.25       
C           99.43       44.69       47.5        
C           99.75       45.53       48.64       
C           99.54       46.91       48.42       
C           99.28       47.47       47.17       
C           99.07       46.59       46.06       
C           99.24       48.01       49.47       
C           99.06       49.25       48.59       
C           99.09       48.96       47.18       
C           98.84       44.19       45.15       
C           99.03       42.89       46.0        
C           99.49       43.2        47.33       
C           98.93       50.56       49.03       
C           98.66       51.61       48.06       
C           98.64       51.24       46.63       
C           98.8        49.91       46.16       
C           98.88       41.57       45.58       
C           99.12       40.52       46.43       
C           99.65       40.78       47.74       
C           99.85       42.13       48.15       
C           97.99       47.66       50.27       
C           100.48      48.43       50.44       
C           97.37       44.43       44.67       
C           99.77       44.25       43.92       
H           98.8        46.95       45.1        
H           100.13      45.2        49.62       
H           98.45       41.39       44.57       
H           100.22      42.35       49.16       
H           99.0        50.85       50.07       
H           98.81       49.66       45.13       
H           98.03       46.61       50.37       
H           98.18       48.06       51.27       
H           97.02795    48.04337    49.93003    
H           101.46      48.49       49.95       
H           100.33      49.35       50.95       
H           100.6904    47.72624    51.24533    
H           99.51       45.11       43.35       
H           99.56       43.43       43.19       
H           100.81883   44.16665    44.20478    
H           97.23       45.37       44.2        
H           97.09       43.62       43.94       
H           96.66308    44.44443    45.49955    
H           98.19       53.44       49.2        
H           98.78       38.69       45.26       
S           98.71       52.7        45.67       
C           98.46       52.98       48.26       
C           98.38       53.71       47.08       
C           99.53       33.89       47.79       
C           98.93       34.46       46.62       
C           100.04      34.74       48.69       
N           98.47       33.73       45.57       
N           98.49       36.23       45.27       
S           97.93       34.91       44.53       
H           100.46      36.73       49.3        
H           100.48      34.3        49.59       
C           100.04      36.17       48.49       
C           98.95       35.88       46.47       
C           99.48       36.81       47.41       
C           99.0        17.44       47.88       
C           100.02      18.1        48.49       
S           97.48       18.44       48.01       
C           99.89       24.18       49.35       
C           98.61       23.57       48.96       
C           97.52       24.42       48.65       
C           97.71       25.8        48.73       
C           99.0        26.32       48.92       
C           100.11      25.56       49.25       
C           96.64       26.82       48.28       
C           97.55       28.11       48.38       
C           98.96       27.77       48.68       
C           100.88      23.06       49.7        
C           100.11      21.83       49.34       
C           98.77       22.12       48.92       
C           97.25       29.41       48.21       
C           98.28       30.4        48.2        
C           99.61       30.01       48.48       
C           99.96       28.71       48.74       
C           100.63      20.6        49.19       
C           99.77       19.51       48.85       
C           98.42       19.81       48.56       
C           97.86       21.07       48.54       
C           96.11       26.55       46.86       
C           95.43       26.88       49.28       
C           102.17      23.3        48.82       
C           101.24      23.03       51.28       
H           101.09      26.02       49.52       
H           96.53       24.05       48.22       
H           101.72      20.5        49.19       
H           96.84       21.35       48.39       
H           96.26       29.8        48.14       
H           101.02      28.4        48.91       
H           95.4        25.72       46.87       
H           96.98       26.3        46.21       
H           95.57254    27.35988    46.36671    
H           94.9        25.97       49.24       
H           94.73       27.73       49.01       
H           95.76603    26.85855    50.31669    
H           102.24      23.56       51.33       
H           101.63      22.03       51.48       
H           100.47636   23.40832    51.95957    
H           102.68      24.21       49.09       
H           102.95      22.58       49.16       
H           102.01836   23.14836    47.7513     
H           97.23       32.18       47.63       
H           100.96      17.63       48.65       
S           100.59      31.44       48.54       
C           98.17       31.79       47.93       
C           99.28       32.47       48.04       
C           99.2        13.29       46.26       
C           98.05       14.09       46.1        
C           100.13      13.91       47.07       
N           96.92       13.71       45.38       
N           96.83       16.05       46.18       
S           95.89       14.92       45.44       
H           100.87      15.61       48.19       
H           101.02      13.38       47.39       
C           100.04      15.28       47.54       
C           97.97       15.46       46.55       
C           99.03       16.08       47.27       
C           102.5       -2.1        40.22       
C           103.45      -1.39       40.81       
S           100.95      -1.26       40.39       
C           102.44      4.3         43.02       
C           101.41      3.69        42.33       
C           100.23      4.39        42.1        
C           100.02      5.73        42.45       
C           101.11      6.27        43.21       
C           102.28      5.57        43.42       
C           98.74       6.59        42.47       
C           99.23       7.76        43.37       
C           100.58      7.57        43.77       
C           103.49      3.18        43.33       
C           103.06      2.0         42.46       
C           101.73      2.25        42.09       
C           98.6        8.97        43.6        
C           99.16       9.94        44.34       
C           100.44      9.66        44.87       
C           101.18      8.56        44.54       
C           103.77      0.89        42.02       
C           103.08      -0.09       41.26       
C           101.69      0.11        41.09       
C           101.0       1.26        41.44       
C           98.38       7.07        41.01       
C           97.58       5.88        43.25       
C           104.88      3.8         43.02       
C           103.65      2.56        44.77       
H           103.01      5.91        44.21       
H           99.43       3.8         41.71       
H           104.76      0.72        42.39       
H           99.95       1.39        41.15       
H           97.61       9.08        43.33       
H           102.19      8.37        44.93       
H           97.96       6.19        40.4        
H           97.57       7.82        40.95       
H           99.29859    7.36655     40.50369    
H           98.01       5.46        44.13       
H           96.84       6.6         43.55       
H           97.15418    5.02835     42.71946    
H           104.69      2.19        44.86       
H           103.09      1.7         44.89       
H           103.39117   3.22144     45.5968     
H           105.61      3.13        43.3        
H           105.02      4.72        43.63       
H           105.03217   3.97391     41.95478    
H           97.61       11.46       44.52       
H           104.45      -1.74       40.88       
S           100.88      11.03       45.85       
C           98.65       11.24       44.78       
C           99.42       11.96       45.59       
C           102.9       -5.68       37.7        
C           103.59      -5.53       38.93       
C           102.01      -4.64       37.53       
N           104.56      -6.32       39.34       
N           104.01      -4.52       41.01       
S           104.98      -5.87       40.86       
H           101.31      -2.72       37.93       
H           101.65      -4.71       36.55       
C           101.89      -3.54       38.36       
C           103.31      -4.46       39.86       
C           102.46      -3.35       39.56       
C           108.8       -7.81       22.5        
C           109.53      -7.4        23.57       
S           107.14      -8.33       22.97       
C           107.46      -7.57       29.26       
C           106.55      -8.05       28.27       
C           105.29      -8.44       28.64       
C           104.87      -8.44       30.01       
C           105.84      -7.98       30.97       
C           107.12      -7.55       30.63       
C           103.48      -8.6        30.64       
C           103.78      -8.18       32.1        
C           105.16      -7.85       32.34       
C           108.78      -7.16       28.61       
C           108.41      -7.32       27.13       
C           107.15      -7.89       26.97       
C           102.87      -8.12       33.17       
C           103.32      -7.52       34.37       
C           104.67      -7.26       34.6        
C           105.61      -7.47       33.58       
C           109.24      -7.25       26.04       
C           108.81      -7.62       24.81       
C           107.51      -8.2        24.64       
C           106.62      -8.38       25.74       
C           102.62      -7.55       29.94       
C           102.88      -10.02      30.61       
C           108.88      -5.69       29.13       
C           110.01      -8.0        29.03       
H           107.76      -7.06       31.39       
H           104.63      -8.76       27.86       
H           110.22      -6.82       26.07       
H           105.64      -8.95       25.59       
H           101.81      -8.25       32.92       
H           106.7       -7.21       33.72       
H           102.36      -7.87       28.92       
H           101.69      -7.63       30.4        
H           102.92118   -6.50305    29.97585    
H           103.49      -10.72      31.21       
H           101.88      -10.08      31.06       
H           102.89387   -10.36674   29.57671    
H           110.97      -7.65       28.73       
H           109.92      -8.99       28.54       
H           110.04574   -8.22875    30.09513    
H           109.24      -5.74       30.13       
H           107.85      -5.32       29.17       
H           109.45143   -4.99667    28.51286    
H           101.48      -7.16       35.45       
H           110.46      -6.9        23.49       
S           104.94      -6.54       36.19       
C           102.56      -7.03       35.52       
C           103.28      -6.58       36.63       
C           110.35      -7.94       18.43       
C           108.88      -7.87       18.61       
C           111.1       -7.77       19.54       
N           107.92      -7.82       17.67       
N           106.96      -7.75       20.07       
S           106.42      -7.9        18.5        
H           111.37      -7.71       21.69       
H           112.19      -7.59       19.47       
C           110.56      -7.7        20.89       
C           108.32      -7.77       19.99       
C           109.22      -7.66       21.12       
C           118.26      -14.85      6.09        
C           118.97      -14.28      7.14        
S           116.73      -14.04      5.92        
C           116.56      -10.7       11.32       
C           115.81      -10.79      10.11       
C           114.52      -10.17      9.95        
C           113.91      -9.64       11.05       
C           114.63      -9.51       12.28       
C           116.05      -9.92       12.37       
C           112.43      -9.35       11.24       
C           112.36      -9.08       12.7        
C           113.69      -8.97       13.25       
C           117.96      -11.38      11.2        
C           117.85      -11.84      9.8         
C           116.54      -11.69      9.24        
C           111.35      -8.72       13.52       
C           111.49      -8.36       14.86       
C           112.82      -8.27       15.35       
C           113.91      -8.58       14.59       
C           118.69      -12.72      9.07        
C           118.25      -13.31      7.91        
C           116.95      -13.06      7.39        
C           116.19      -12.18      8.03        
C           112.0       -8.13       10.37       
C           111.59      -10.65      10.88       
C           119.05      -10.25      11.36       
C           118.03      -12.56      12.24       
H           116.53      -9.89       13.31       
H           114.0       -10.23      9.01        
H           119.74      -12.89      9.43        
H           115.22      -11.95      7.65        
H           110.29      -8.64       13.07       
H           114.92      -8.65       15.09       
H           111.11      -8.24       9.8         
H           112.78      -8.17       9.63        
H           112.1583    -7.18023    10.88086    
H           111.93      -10.92      9.89        
H           110.51      -10.52      10.87       
H           111.89637   -11.45241   11.5511     
H           117.86      -12.24      13.27       
H           117.27      -13.17      11.8        
H           118.98812   -13.07954   12.22651    
H           119.79      -10.4       12.18       
H           118.48      -9.31       11.63       
H           119.54434   -9.99925    10.42147    
H           109.45      -8.25       15.79       
H           119.97      -14.6       7.37        
S           112.78      -7.88       17.05       
C           110.51      -8.17       15.84       
C           111.02      -8.05       17.11       
C           119.56      -18.14      3.36        
C           120.41      -17.69      4.41        
C           118.36      -17.46      3.36        
N           121.61      -18.11      4.61        
N           120.93      -16.28      6.14        
S           122.28      -17.19      5.86        
H           116.94      -16.05      4.07        
H           117.6       -17.96      2.78        
C           117.96      -16.36      4.21        
C           120.0       -16.52      5.24        
C           118.74      -15.89      5.18        
C           122.81      -31.81      -5.76       
C           123.44      -31.5       -4.59       
S           121.72      -30.58      -6.2        
C           121.93      -26.76      -0.95       
C           121.29      -26.81      -2.24       
C           120.47      -25.76      -2.66       
C           120.29      -24.59      -1.83       
C           120.82      -24.57      -0.51       
C           121.6       -25.71      -0.08       
C           119.47      -23.36      -2.12       
C           119.56      -22.66      -0.74       
C           120.4       -23.37      0.17        
C           122.96      -27.92      -0.76       
C           122.76      -28.6       -2.15       
C           121.75      -27.99      -2.93       
C           119.04      -21.47      -0.35       
C           119.41      -20.92      0.8         
C           120.3       -21.59      1.67        
C           120.79      -22.89      1.41        
C           123.39      -29.79      -2.63       
C           123.03      -30.26      -3.91       
C           121.99      -29.65      -4.66       
C           121.4       -28.48      -4.19       
C           120.18      -22.72      -3.31       
C           118.02      -23.87      -2.5        
C           124.29      -27.17      -0.5        
C           122.8       -29.0       0.37        
H           122.0       -25.71      0.94        
H           120.12      -25.83      -3.67       
H           124.02      -30.33      -1.94       
H           120.64      -27.97      -4.85       
H           118.23      -20.95      -0.89       
H           121.53      -23.33      2.05        
H           119.71      -23.16      -4.19       
H           121.27      -22.86      -3.26       
H           119.89951   -21.67517   -3.44323    
H           118.03      -24.55      -3.36       
H           117.53      -23.09      -2.96       
H           117.47341   -24.27462   -1.64817    
H           123.7       -28.85      1.04        
H           122.84      -30.05      -0.03       
H           121.88381   -28.81117   0.9295      
H           124.04      -26.51      0.33        
H           124.98      -27.88      -0.15       
H           124.61103   -26.58019   -1.35858    
H           118.37      -19.02      0.79        
H           124.22      -32.17      -4.21       
S           120.91      -20.51      2.95        
C           119.1       -19.58      1.3         
C           119.85      -19.23      2.42        
C           122.34      -35.47      -8.15       
C           123.53      -35.23      -7.4        
C           121.5       -34.44      -8.11       
N           124.46      -36.17      -7.13       
N           124.8       -34.21      -5.7        
S           125.56      -35.64      -5.99       
H           120.94      -32.5       -7.66       
H           120.62      -34.54      -8.68       
C           121.82      -33.19      -7.51       
C           123.77      -34.09      -6.51       
C           122.87      -32.97      -6.63       
C           111.04      -44.0       -4.22       
C           110.92      -43.59      -5.51       
S           112.68      -44.45      -3.84       
C           115.81      -42.34      -8.85       
C           116.06      -43.15      -7.72       
C           117.34      -43.34      -7.22       
C           118.32      -42.53      -7.76       
C           118.01      -41.62      -8.83       
C           116.75      -41.54      -9.4        
C           119.78      -42.31      -7.29       
C           120.21      -41.23      -8.18       
C           119.17      -40.74      -8.98       
C           114.33      -42.28      -9.18       
C           113.79      -43.05      -7.93       
C           114.82      -43.47      -7.04       
C           121.42      -40.58      -8.19       
C           121.41      -39.2       -8.64       
C           120.31      -38.68      -9.37       
C           119.22      -39.47      -9.6        
C           112.44      -43.16      -7.58       
C           112.19      -43.5       -6.24       
C           113.25      -43.93      -5.39       
C           114.58      -43.88      -5.77       
C           119.71      -41.8       -5.83       
C           120.63      -43.61      -7.58       
C           113.87      -40.81      -9.12       
C           114.13      -42.91      -10.59      
H           116.51      -40.88      -10.15      
H           117.53      -43.92      -6.35       
H           111.69      -42.82      -8.3        
H           115.38      -44.22      -5.1        
H           122.18      -40.93      -7.46       
H           118.42      -38.99      -10.08      
H           119.55      -42.56      -5.06       
H           120.73      -41.41      -5.56       
H           119.01394   -40.97169   -5.69775    
H           120.67      -43.92      -8.66       
H           121.59      -43.33      -7.22       
H           120.30142   -44.51716   -7.07285    
H           114.45      -43.92      -10.52      
H           114.84      -42.41      -11.26      
H           113.11149   -42.9889    -10.97015   
H           114.31      -40.32      -10.01      
H           112.8       -40.72      -9.09       
H           114.15034   -40.30096   -8.19783    
H           123.15      -38.3       -7.69       
H           109.93      -43.34      -5.84       
S           120.45      -36.93      -9.6        
C           122.29      -38.1       -8.3        
C           121.91      -36.82      -8.68       
C           107.5       -44.47      -1.44       
C           108.86      -44.74      -1.09       
C           107.44      -43.9       -2.71       
N           109.2       -45.33      0.06        
N           111.19      -44.93      -1.29       
S           110.82      -45.54      0.16        
H           108.35      -43.44      -4.53       
H           106.51      -43.81      -3.19       
C           108.54      -43.84      -3.56       
C           110.04      -44.53      -1.9        
C           109.89      -44.07      -3.22       
C           94.96       -45.18      9.48        
C           96.27       -45.13      9.79        
S           94.83       -45.14      7.7         
C           100.9       -45.45      5.86        
C           99.61       -45.55      5.27        
C           99.48       -45.42      3.89        
C           100.61      -45.13      3.11        
C           101.87      -45.13      3.69        
C           102.08      -45.28      5.08        
C           100.67      -44.61      1.68        
C           102.16      -44.6       1.46        
C           102.87      -44.89      2.68        
C           100.75      -45.07      7.33        
C           99.27       -45.32      7.48        
C           98.61       -45.5       6.26        
C           102.87      -44.45      0.27        
C           104.26      -44.61      0.34        
C           104.89      -44.7       1.64        
C           104.24      -44.86      2.88        
C           98.55       -45.18      8.64        
C           97.16       -45.17      8.63        
C           96.59       -45.29      7.39        
C           97.23       -45.46      6.18        
C           99.94       -45.49      0.66        
C           100.24      -43.1       1.55        
C           101.69      -46.04      8.14        
C           101.3       -43.64      7.59        
H           103.12      -45.28      5.52        
H           98.45       -45.38      3.53        
H           99.1        -45.15      9.57        
H           96.66       -45.49      5.24        
H           102.33      -44.15      -0.62       
H           104.69      -45.08      3.86        
H           98.87       -45.45      1.0         
H           99.95       -45.0       -0.26       
H           100.34438   -46.50095   0.71055     
H           100.77      -42.51      2.23        
H           100.5       -42.77      0.57        
H           99.22071    -42.84518   1.84021     
H           102.39      -43.61      7.43        
H           101.03      -43.26      8.57        
H           100.92433   -42.91648   6.86648     
H           101.83      -45.66      9.15        
H           102.74      -45.87      7.77        
H           101.43397   -47.09258   8.0191      
H           104.82      -44.38      -1.74       
H           96.63       -45.05      10.84       
S           106.64      -44.65      1.37        
C           105.14      -44.59      -0.77       
C           106.44      -44.54      -0.45       
C           91.53       -44.99      12.31       
C           91.37       -45.54      10.98       
C           92.85       -44.68      12.61       
N           90.22       -46.01      10.4        
N           92.1        -45.96      8.75        
S           90.57       -46.37      8.86        
H           94.99       -44.56      12.02       
H           93.1        -44.38      13.64       
C           93.92       -44.77      11.68       
C           92.45       -45.52      10.01       
C           93.78       -45.18      10.38       
C           78.4        -44.41      22.59       
C           78.57       -45.19      21.47       
S           79.82       -43.43      22.91       
C           83.69       -45.35      18.23       
C           83.71       -44.3       19.13       
C           84.82       -43.47      19.28       
C           85.87       -43.69      18.41       
C           85.82       -44.71      17.44       
C           84.64       -45.45      17.27       
C           87.21       -42.93      18.35       
C           87.92       -43.63      17.18       
C           87.09       -44.68      16.75       
C           82.35       -46.12      18.28       
C           81.63       -45.39      19.37       
C           82.45       -44.36      19.95       
C           89.09       -43.36      16.41       
C           89.37       -44.11      15.23       
C           88.55       -45.21      14.97       
C           87.35       -45.47      15.61       
C           80.39       -45.72      19.89       
C           79.81       -44.97      20.86       
C           80.64       -44.01      21.47       
C           81.98       -43.65      21.05       
C           86.92       -41.4       18.12       
C           87.93       -43.2       19.7        
C           81.53       -45.91      16.97       
C           82.43       -47.62      18.71       
H           84.69       -46.19      16.46       
H           84.85       -42.56      19.99       
H           79.88       -46.53      19.34       
H           82.58       -42.91      21.53       
H           89.68       -42.54      16.76       
H           86.69       -46.26      15.27       
H           86.34       -41.11      19.06       
H           86.36       -41.19      17.18       
H           87.81671    -40.78032   18.12       
H           87.55       -42.48      20.4        
H           89.01       -42.94      19.63       
H           87.89265    -44.22334   20.07348    
H           82.89       -48.26      17.99       
H           81.45       -48.04      18.73       
H           82.85535    -47.76887   19.70248    
H           82.07       -46.29      16.11       
H           80.67       -46.6       16.95       
H           81.2447     -44.87578   16.77742    
H           91.2        -43.08      14.41       
H           77.92       -46.01      21.24       
S           89.19       -45.95      13.5        
C           90.45       -43.88      14.33       
C           90.53       -44.82      13.35       
C           74.8        -43.84      24.96       
C           74.91       -44.99      24.08       
C           75.91       -42.96      24.94       
N           73.99       -45.94      23.94       
N           76.08       -46.41      22.72       
S           74.59       -47.11      22.95       
H           77.85       -42.54      24.25       
H           75.92       -42.12      25.55       
C           77.07       -43.27      24.23       
C           76.12       -45.25      23.38       
C           77.25       -44.4       23.46       
C           60.85       -36.72      30.72       
C           62.03       -36.4       31.22       
S           60.89       -38.32      29.95       
C           67.16       -39.36      29.77       
C           65.97       -39.97      29.37       
C           66.05       -41.19      28.69       
C           67.3        -41.62      28.15       
C           68.52       -40.95      28.45       
C           68.43       -39.9       29.4        
C           67.59       -42.86      27.34       
C           69.08       -42.77      27.09       
C           69.57       -41.63      27.79       
C           66.84       -38.13      30.54       
C           65.33       -38.05      30.47       
C           64.84       -39.17      29.76       
C           69.87       -43.67      26.41       
C           71.25       -43.32      26.31       
C           71.69       -42.15      26.93       
C           70.91       -41.26      27.71       
C           64.44       -37.12      30.99       
C           63.08       -37.29      30.83       
C           62.61       -38.38      30.1        
C           63.47       -39.32      29.48       
C           67.17       -44.14      28.08       
C           66.79       -42.74      26.02       
C           67.59       -38.33      31.92       
C           67.47       -36.93      29.75       
H           69.37       -39.34      29.59       
H           65.19       -41.7       28.32       
H           64.84       -36.21      31.45       
H           63.14       -40.14      28.82       
H           69.44       -44.51      25.92       
H           71.36       -40.51      28.24       
H           67.45       -45.0       27.4        
H           66.12       -44.11      28.24       
H           67.66703    -44.28911   29.03856    
H           65.76       -42.42      26.29       
H           66.75       -43.75      25.51       
H           67.23923    -42.05913   25.29702    
H           68.55       -36.96      29.46       
H           67.08       -36.92      28.67       
H           67.36225    -35.93156   30.1738     
H           68.55       -37.81      31.93       
H           67.71       -39.38      31.97       
H           67.00039    -37.94676   32.75282    
H           72.14       -44.98      25.24       
H           62.26       -35.43      31.61       
S           73.38       -41.95      26.56       
C           72.35       -44.08      25.72       
C           73.59       -43.48      25.71       
C           56.83       -34.78      30.89       
C           57.93       -34.42      31.78       
C           57.2        -35.79      29.95       
N           57.85       -33.55      32.78       
N           59.92       -34.84      32.78       
S           59.3        -33.54      33.54       
H           58.7        -37.06      29.1        
H           56.49       -36.02      29.11       
C           58.5        -36.35      29.9        
C           59.21       -35.1       31.71       
C           59.55       -36.09      30.75       
H           98.75       54.79       47.08       
H           55.89       -34.25      30.85       
