612

C           60.18       0.64        51.16       
C           60.89       -0.22       51.93       
S           59.91       2.14        52.0        
C           63.11       1.27        57.39       
C           62.23       2.17        56.77       
C           61.99       3.37        57.38       
C           62.37       3.61        58.71       
C           63.24       2.68        59.31       
C           63.65       1.55        58.65       
C           61.96       4.66        59.73       
C           62.73       4.17        60.98       
C           63.54       3.09        60.64       
C           63.06       -0.06       56.64       
C           62.26       0.37        55.35       
C           61.68       1.63        55.53       
C           62.87       4.74        62.2        
C           63.78       4.22        63.05       
C           64.55       3.09        62.78       
C           64.4        2.48        61.52       
C           61.95       -0.41       54.32       
C           61.22       0.21        53.23       
C           60.65       1.55        53.47       
C           60.8        2.22        54.63       
C           62.45       6.03        59.17       
C           60.44       4.68        59.99       
C           64.47       -0.62       56.24       
C           62.18       -1.12       57.39       
H           64.38       0.86        59.03       
H           61.18       3.98        57.07       
H           62.42       -1.42       54.16       
H           60.47       3.22        54.67       
H           62.3        5.62        62.52       
H           65.08       1.69        61.26       
H           61.95       6.36        58.24       
H           62.23       6.76        59.93       
H           63.53657    6.11522     59.1558     
H           59.98       3.67        60.1        
H           60.13       5.2         60.87       
H           59.82325    5.08193     59.18615    
H           62.1        -1.96       56.76       
H           61.19       -0.78       57.61       
H           62.59093    -1.54535    58.30559    
H           65.07       -0.91       57.07       
H           64.32       -1.49       55.62       
H           65.06671    0.10458     55.68591    
H           63.3        5.43        64.87       
H           61.16       -1.21       51.53       
S           65.49       2.62        64.14       
C           63.91       4.64        64.44       
C           64.75       3.86        65.1        
C           58.21       -0.15       47.23       
C           58.24       1.2         47.77       
C           58.82       -1.12       47.89       
N           57.56       2.21        47.26       
N           58.69       2.79        49.31       
S           57.75       3.51        48.23       
H           60.03       -1.66       49.58       
H           58.75       -2.13       47.57       
C           59.57       -0.81       49.11       
C           58.93       1.5         49.03       
C           59.67       0.49        49.75       
C           53.42       -3.55       32.46       
C           53.98       -4.62       33.1        
S           52.43       -2.6        33.52       
C           54.84       -3.97       39.04       
C           53.8        -3.18       38.49       
C           53.08       -2.24       39.31       
C           53.51       -1.99       40.61       
C           54.68       -2.73       41.02       
C           55.29       -3.8        40.34       
C           53.07       -0.98       41.67       
C           54.26       -1.1        42.67       
C           55.15       -2.14       42.22       
C           55.09       -5.2        38.11       
C           54.52       -4.62       36.82       
C           53.65       -3.59       37.15       
C           54.45       -0.37       43.88       
C           55.63       -0.64       44.54       
C           56.52       -1.62       44.12       
C           56.25       -2.37       43.0        
C           54.56       -5.14       35.53       
C           53.87       -4.48       34.52       
C           52.99       -3.46       34.89       
C           52.84       -3.02       36.26       
C           53.04       0.48        41.03       
C           51.69       -1.3        42.28       
C           56.62       -5.45       37.95       
C           54.37       -6.5        38.49       
H           56.16       -4.3        40.68       
H           52.23       -1.82       38.81       
H           55.27       -5.93       35.24       
H           52.17       -2.25       36.58       
H           53.74       0.43        44.08       
H           56.96       -3.14       42.73       
H           52.15       1.04        41.31       
H           53.21       0.36        39.94       
H           53.86125    1.1546      41.27198    
H           51.67       -2.18       42.92       
H           51.51       -0.54       43.01       
H           50.84973    -1.28539    41.58586    
H           54.57       -7.22       37.69       
H           53.36       -6.39       38.47       
H           54.54228    -6.86609    39.50213    
H           57.01       -5.67       38.91       
H           56.88       -6.28       37.31       
H           57.16473    -4.59885    37.54145    
H           55.83       0.73        46.36       
H           54.52       -5.42       32.56       
S           58.03       -1.72       45.02       
C           56.24       -0.05       45.73       
C           57.47       -0.48       46.07       
C           53.4        -2.24       28.33       
C           54.03       -3.47       28.71       
C           52.72       -1.59       29.34       
N           54.73       -4.26       27.86       
N           54.73       -5.08       30.13       
S           55.29       -5.62       28.68       
H           52.07       -1.42       31.31       
H           52.2        -0.65       29.13       
C           52.57       -2.12       30.62       
C           53.98       -3.97       30.02       
C           53.34       -3.22       31.07       
C           59.29       8.76        17.47       
C           60.01       7.82        18.11       
S           57.59       8.33        17.44       
C           57.3        3.12        21.09       
C           56.46       4.12        20.62       
C           55.1        4.07        20.94       
C           54.76       3.01        21.83       
C           55.63       2.02        22.3        
C           56.9        2.01        21.88       
C           53.41       2.89        22.59       
C           53.71       1.64        23.51       
C           55.01       1.21        23.38       
C           58.76       3.56        20.87       
C           58.63       4.86        20.01       
C           57.22       5.12        19.81       
C           52.92       1.04        24.44       
C           53.51       0.07        25.33       
C           54.81       -0.36       25.16       
C           55.61       0.19        24.13       
C           59.57       5.68        19.47       
C           59.15       6.78        18.74       
C           57.76       6.93        18.47       
C           56.8        6.1         18.96       
C           53.21       4.23        23.42       
C           52.22       2.6         21.72       
C           59.43       3.78        22.23       
C           59.52       2.41        20.12       
H           57.69       1.39        22.27       
H           54.44       4.8         20.57       
H           60.57       5.42        19.72       
H           55.72       6.26        18.86       
H           51.89       1.31        24.49       
H           56.67       -0.01       24.07       
H           53.17       5.14        22.7        
H           52.15       4.15        23.81       
H           53.94082    4.33031     24.22246    
H           52.28       1.61        21.32       
H           51.26       2.7         22.27       
H           52.0816     3.22973     20.84115    
H           59.81       1.53        20.71       
H           60.45       2.81        19.83       
H           58.98394    2.05752     19.23881    
H           59.43       2.95        22.83       
H           60.52       3.99        22.18       
H           58.99562    4.63476     22.74846    
H           51.83       -0.6        26.59       
H           61.02       7.82        18.2        
S           55.27       -1.47       26.43       
C           52.87       -0.65       26.36       
C           53.67       -1.53       27.02       
C           60.27       12.44       15.1        
C           61.16       11.92       15.97       
C           59.1        11.71       15.08       
N           62.43       12.42       16.23       
N           62.01       10.14       17.3        
S           63.26       11.18       17.07       
H           57.79       10.15       15.75       
H           58.28       12.05       14.44       
C           58.8        10.57       15.87       
C           60.94       10.62       16.62       
C           59.66       9.94        16.69       
C           60.5        24.98       4.16        
C           59.9        23.79       3.99        
S           61.22       25.08       5.77        
C           59.83       19.25       7.98        
C           60.54       20.39       8.43        
C           60.79       20.51       9.8         
C           60.47       19.52       10.72       
C           60.05       18.25       10.18       
C           59.63       18.16       8.83        
C           61.04       19.34       12.11       
C           60.93       17.81       12.29       
C           60.22       17.26       11.18       
C           59.39       19.37       6.51        
C           59.9        20.77       6.23        
C           60.51       21.4        7.38        
C           61.22       17.02       13.4        
C           60.75       15.72       13.51       
C           60.11       15.18       12.35       
C           59.85       15.94       11.2        
C           59.69       21.49       5.07        
C           60.09       22.86       5.03        
C           60.86       23.41       6.15        
C           61.02       22.73       7.35        
C           62.5        19.75       12.36       
C           60.19       19.97       13.26       
C           60.15       18.36       5.61        
C           57.86       19.39       6.16        
H           59.26       17.23       8.35        
H           61.24       21.44       10.09       
H           59.1        21.1        4.33        
H           61.67       23.09       8.13        
H           61.72       17.37       14.25       
H           59.39       15.53       10.34       
H           62.75       20.74       12.08       
H           62.78       19.55       13.33       
H           63.23344    19.14928    11.82214    
H           59.3        19.32       13.55       
H           60.73       19.92       14.22       
H           59.99033    21.03721    13.16361    
H           57.65       19.22       5.07        
H           57.39       20.36       6.51        
H           57.26086    18.69814    6.752       
H           59.77       17.37       5.82        
H           59.81       18.41       4.61        
H           61.22687    18.45523    5.74919     
H           61.32       15.0        15.58       
H           59.27       23.49       3.2         
S           59.62       13.48       12.68       
C           60.9        14.77       14.57       
C           60.34       13.58       14.34       
C           59.4        28.91       2.59        
C           60.69       28.6        3.0         
C           58.63       27.8        2.52        
N           61.67       29.5        3.07        
N           62.5        27.3        3.87        
S           63.07       28.85       3.59        
H           58.23       25.78       3.02        
H           57.56       27.89       2.32        
C           59.02       26.51       2.93        
C           61.19       27.3        3.47        
C           60.3        26.21       3.38        
C           55.31       42.67       9.79        
C           54.83       41.45       10.13       
S           56.08       42.62       8.21        
C           54.92       36.69       6.41        
C           55.41       37.87       5.87        
C           56.21       37.85       4.71        
C           56.59       36.63       4.22        
C           56.05       35.47       4.75        
C           55.08       35.47       5.77        
C           57.65       36.32       3.17        
C           57.75       34.78       3.23        
C           56.68       34.29       4.1         
C           54.35       36.95       7.87        
C           54.55       38.44       7.97        
C           55.23       38.95       6.82        
C           58.62       33.92       2.59        
C           58.41       32.53       2.81        
C           57.32       32.04       3.54        
C           56.49       32.95       4.27        
C           54.18       39.21       9.05        
C           54.8        40.49       9.05        
C           55.48       40.99       7.89        
C           55.62       40.35       6.66        
C           57.14       36.82       1.82        
C           58.94       37.05       3.66        
C           52.87       36.5        8.1         
C           55.22       36.24       8.87        
H           54.68       34.5        6.19        
H           56.73       38.69       4.25        
H           53.66       38.75       9.92        
H           56.26       40.71       5.91        
H           59.45       34.29       2.05        
H           55.72       32.6        4.92        
H           56.53       37.71       1.91        
H           56.71       35.94       1.34        
H           57.86338    37.18169    1.08924     
H           58.85       38.09       3.41        
H           59.84       36.68       3.08        
H           59.25455    36.87843    4.68943     
H           55.03       35.15       8.88        
H           54.97       36.6        9.9         
H           56.298      36.35747    8.75944     
H           52.49       36.78       9.04        
H           52.79       35.38       8.1         
H           52.13274    36.88989    7.39819     
H           60.16       31.66       1.72        
H           54.42       41.28       11.1        
S           57.31       30.3        3.51        
C           59.24       31.49       2.3         
C           58.83       30.23       2.64        
C           55.42       46.3        12.34       
C           54.93       46.35       11.0        
C           55.76       45.02       12.76       
N           54.45       47.48       10.46       
N           54.69       45.52       8.87        
S           54.23       47.07       8.91        
H           56.03       42.98       12.46       
H           55.99       44.79       13.76       
C           55.64       43.86       11.96       
C           55.01       45.2        10.1        
C           55.42       43.88       10.63       
C           56.75       57.76       24.12       
C           57.23       56.5        24.19       
S           55.87       57.94       22.57       
C           57.62       52.67       19.42       
C           56.89       53.87       19.21       
C           56.45       54.21       18.0        
C           56.38       53.2        17.06       
C           56.98       51.9        17.38       
C           57.63       51.64       18.55       
C           55.4        52.97       15.92       
C           55.69       51.54       15.5        
C           56.67       50.98       16.33       
C           58.44       52.76       20.75       
C           57.77       53.94       21.39       
C           56.99       54.67       20.38       
C           55.14       50.88       14.42       
C           55.48       49.51       14.23       
C           56.38       48.86       15.12       
C           56.95       49.62       16.2        
C           57.87       54.48       22.73       
C           57.28       55.75       22.94       
C           56.59       56.42       21.92       
C           56.52       55.89       20.69       
C           53.94       53.16       16.51       
C           55.62       53.99       14.77       
C           58.24       51.57       21.73       
C           59.94       52.99       20.52       
H           58.04       50.64       18.8        
H           56.08       55.21       17.69       
H           58.27       53.92       23.5        
H           55.97       56.52       19.99       
H           54.54       51.46       13.68       
H           57.57       49.18       16.87       
H           53.24       53.48       15.71       
H           54.05       54.03       17.16       
H           53.58214    52.31097    17.09239    
H           55.25       55.0        15.07       
H           54.99       53.69       13.92       
H           56.65043    54.06106    14.42178    
H           60.36       52.67       19.58       
H           60.25       52.25       21.24       
H           60.34994    53.9681     20.77172    
H           58.72       50.62       21.41       
H           58.8        51.83       22.62       
H           57.20083    51.45144    22.03687    
H           54.19       48.86       12.49       
H           57.7        56.13       25.09       
S           56.65       47.23       14.55       
C           54.91       48.56       13.25       
C           55.59       47.42       13.19       
C           55.05       60.53       26.95       
C           55.77       60.98       25.83       
C           55.08       59.15       27.03       
N           55.74       62.24       25.41       
N           57.12       60.74       23.93       
S           56.72       62.34       24.09       
H           55.46       57.13       26.29       
H           54.32       58.73       27.72       
C           55.71       58.23       26.14       
C           56.48       60.12       24.95       
C           56.47       58.68       25.12       
C           40.91       66.13       33.34       
C           41.55       64.93       33.69       
S           41.96       67.14       32.35       
C           47.22       63.63       32.23       
C           46.7        64.74       31.6        
C           47.33       65.44       30.61       
C           48.5        64.94       30.08       
C           49.06       63.79       30.71       
C           48.44       63.14       31.77       
C           49.08       65.06       28.63       
C           50.28       64.2        28.81       
C           50.29       63.43       29.97       
C           46.12       62.81       32.87       
C           44.98       63.82       32.78       
C           45.37       65.0        32.11       
C           51.26       63.94       27.91       
C           52.2        62.87       28.03       
C           52.14       62.08       29.17       
C           51.19       62.38       30.15       
C           43.71       63.64       33.18       
C           42.85       64.78       33.08       
C           43.29       65.99       32.42       
C           44.55       66.09       31.92       
C           47.96       64.59       27.69       
C           49.46       66.56       28.37       
C           45.83       61.5        32.09       
C           46.32       62.44       34.39       
H           48.95       62.3        32.25       
H           46.8        66.27       30.11       
H           43.42       62.75       33.72       
H           44.79       66.99       31.37       
H           51.29       64.42       26.96       
H           51.35       61.94       31.11       
H           47.52       65.55       27.25       
H           47.2        64.2        28.27       
H           48.23501    63.79318    26.99895    
H           48.62       67.2        28.59       
H           49.62       66.6        27.29       
H           50.24615    67.00619    28.97909    
H           45.68       61.53       34.68       
H           45.99       63.2        35.04       
H           47.33692    62.12266    34.62079    
H           46.73       60.87       32.06       
H           44.96       60.92       32.45       
H           45.49631    61.6775     31.06763    
H           53.56       62.94       26.18       
H           41.05       64.14       34.31       
S           53.36       60.83       29.15       
C           53.28       62.43       27.06       
C           54.02       61.35       27.57       
C           36.86       67.61       34.36       
C           37.07       66.24       34.08       
C           38.01       68.41       34.19       
N           36.14       65.36       34.2        
N           38.32       64.4        33.55       
S           36.77       63.92       33.88       
H           40.13       68.56       33.75       
H           37.91       69.45       34.56       
C           39.27       67.91       33.72       
C           38.41       65.75       33.66       
C           39.53       66.58       33.47       
C           21.77       73.46       38.04       
C           22.58       74.13       37.19       
S           22.5        71.97       38.52       
C           28.28       72.29       36.05       
C           27.49       71.35       36.82       
C           28.02       70.18       37.29       
C           29.36       69.82       37.04       
C           30.13       70.75       36.28       
C           29.63       71.95       35.8        
C           30.15       68.56       37.48       
C           31.51       68.89       36.85       
C           31.47       70.07       36.11       
C           27.55       73.58       35.74       
C           26.15       73.15       36.24       
C           26.19       71.93       36.96       
C           32.66       68.17       37.0        
C           33.7        68.44       36.14       
C           33.66       69.62       35.36       
C           32.59       70.56       35.48       
C           25.01       73.9        36.2        
C           23.83       73.49       36.89       
C           23.84       72.23       37.48       
C           24.98       71.41       37.47       
C           30.24       68.45       39.05       
C           29.53       67.24       36.88       
C           28.32       74.66       36.54       
C           27.47       73.87       34.19       
H           30.24       72.6        35.27       
H           27.34       69.63       37.88       
H           25.1        74.84       35.8        
H           24.93       70.39       37.84       
H           32.68       67.33       37.7        
H           32.56       71.51       34.99       
H           29.23       68.54       39.28       
H           30.64       67.5        39.31       
H           30.69104    69.24297    39.64654    
H           29.71       67.27       35.84       
H           30.07       66.38       37.26       
H           28.47152    67.04242    37.04936    
H           28.45       73.83       33.78       
H           27.16       74.9        34.09       
H           26.82385    73.23119    33.58791    
H           28.69       75.36       35.83       
H           29.36       74.31       36.77       
H           27.79611    74.91088    37.46234    
H           35.09       66.64       36.19       
H           22.28       75.11       36.82       
S           35.11       69.75       34.37       
C           34.82       67.64       35.75       
C           35.69       68.2        34.92       
C           18.08       74.35       40.25       
C           18.59       75.26       39.28       
C           18.61       73.09       40.17       
N           18.26       76.56       39.22       
N           20.25       76.07       37.83       
S           19.16       77.34       38.13       
H           20.03       71.85       39.45       
H           18.24       72.29       40.84       
C           19.69       72.86       39.36       
C           19.82       75.02       38.54       
C           20.47       73.78       38.66       
C           5.7         76.2        50.78       
C           6.47        77.31       50.44       
S           5.64        75.03       49.48       
C           10.41       77.21       45.77       
C           9.54        76.07       45.91       
C           9.74        74.85       45.28       
C           10.85       74.69       44.49       
C           11.7        75.79       44.29       
C           11.49       77.04       44.86       
C           11.41       73.4        43.82       
C           12.62       73.98       43.1        
C           12.85       75.29       43.53       
C           9.99        78.36       46.66       
C           8.76        77.7        47.4        
C           8.48        76.39       46.85       
C           13.52       73.33       42.28       
C           14.77       73.99       42.06       
C           14.97       75.28       42.54       
C           14.02       76.03       43.19       
C           8.07        78.11       48.5        
C           7.09        77.17       49.12       
C           6.8         75.91       48.48       
C           7.43        75.51       47.3        
C           11.76       72.51       45.0        
C           10.36       72.71       42.85       
C           11.03       78.82       47.7        
C           9.47        79.58       45.8        
H           12.11       77.82       44.67       
H           9.11        73.96       45.47       
H           8.27        78.99       48.98       
H           7.29        74.46       47.02       
H           13.26       72.43       41.68       
H           14.11       77.1        43.36       
H           11.02       71.81       45.07       
H           11.96       73.08       45.88       
H           12.66183    71.90179    44.93009    
H           9.44        72.86       43.38       
H           10.56       71.63       42.6        
H           10.35292    73.11359    41.83749    
H           9.16        80.35       46.55       
H           8.56        79.17       45.27       
H           10.24534    79.97834    45.14558    
H           11.96       79.05       47.23       
H           10.66       79.74       48.22       
H           11.23139    78.09081    48.48475    
H           15.73       72.67       40.6        
H           6.63        78.15       51.12       
S           16.53       75.91       42.01       
C           15.87       73.56       41.22       
C           16.86       74.49       41.07       
C           3.17        75.76       54.41       
C           3.51        74.65       53.63       
C           3.74        76.96       54.01       
N           3.23        73.44       54.01       
N           4.69        73.47       51.97       
S           4.12        72.41       53.09       
H           5.04        78.0        52.67       
H           3.66        77.85       54.6        
C           4.59        77.05       52.87       
C           4.45        74.69       52.5        
C           4.89        75.97       52.0        
C           -4.14       76.02       69.09       
C           -2.85       76.22       68.84       
S           -4.84       75.08       67.82       
C           -0.13       75.18       63.62       
C           -1.44       74.63       63.69       
C           -2.05       74.2        62.56       
C           -1.4        74.3        61.29       
C           -0.1        74.88       61.2        
C           0.55        75.28       62.4        
C           -1.81       73.88       59.86       
C           -0.57       74.27       59.03       
C           0.34        74.97       59.82       
C           0.48        75.54       64.99       
C           -0.79       75.29       65.9        
C           -1.83       74.68       65.12       
C           -0.44       74.36       57.69       
C           0.77        74.87       57.1        
C           1.64        75.55       57.98       
C           1.5         75.58       59.32       
C           -1.06       75.72       67.18       
C           -2.38       75.59       67.64       
C           -3.38       74.96       66.88       
C           -3.08       74.54       65.58       
C           -1.98       72.37       59.65       
C           -3.06       74.68       59.38       
C           1.64        74.67       65.37       
C           0.79        77.06       65.13       
H           1.55        75.65       62.42       
H           -3.04       73.91       62.63       
H           -0.22       76.24       67.77       
H           -3.93       74.31       64.95       
H           -1.26       74.06       57.03       
H           2.26        76.11       59.83       
H           -2.09       72.17       58.56       
H           -2.95       72.11       60.03       
H           -1.21218    71.78158    60.15231    
H           -3.97       74.18       59.83       
H           -3.18       74.48       58.29       
H           -3.01801    75.72268    59.6949     
H           1.06        77.26       66.16       
H           -0.12       77.64       64.9        
H           1.5911      77.49303    64.53098    
H           2.28        75.21       65.96       
H           2.19        74.33       64.51       
H           1.2864      73.75065    65.83675    
H           0.57        74.5        54.93       
H           -2.24       76.68       69.63       
S           2.97        76.25       57.03       
C           1.16        74.97       55.74       
C           2.25        75.69       55.51       
C           -6.69       77.61       72.47       
C           -5.5        78.29       72.1        
C           -6.95       76.47       71.72       
N           -4.91       79.34       72.71       
N           -3.6        78.66       70.75       
S           -3.52       79.77       71.93       
H           -6.29       75.04       70.28       
H           -7.77       75.79       71.98       
C           -6.1        76.01       70.67       
C           -4.64       77.84       71.0        
C           -4.93       76.63       70.22       
H           65.01       4.12        66.08       
H           -7.11       77.63       73.49       
