612

C           44.09       82.43       83.57       
C           42.88       81.8        83.8        
S           44.9        81.63       82.23       
C           41.25       76.51       81.25       
C           42.2        77.22       80.5        
C           42.71       76.74       79.33       
C           42.22       75.58       78.77       
C           41.33       74.83       79.58       
C           40.84       75.3        80.79       
C           42.58       74.84       77.5        
C           41.84       73.53       77.7        
C           41.02       73.58       78.87       
C           40.7        77.28       82.45       
C           41.49       78.55       82.3        
C           42.48       78.42       81.28       
C           41.9        72.36       77.01       
C           41.03       71.31       77.3        
C           40.28       71.41       78.46       
C           40.21       72.53       79.25       
C           41.55       79.73       83.12       
C           42.56       80.65       82.97       
C           43.6        80.45       82.04       
C           43.51       79.36       81.14       
C           42.01       75.67       76.34       
C           44.09       74.49       77.25       
C           39.18       77.53       82.27       
C           40.99       76.53       83.76       
H           40.2        74.65       81.35       
H           43.47       77.34       78.89       
H           40.82       79.86       83.95       
H           44.25       79.36       80.34       
H           42.45       72.19       76.07       
H           39.75       72.5        80.27       
H           42.63       76.53       76.05       
H           41.93       74.99       75.44       
H           41.01062    76.04907    76.55366    
H           44.42       73.56       77.78       
H           44.22       74.38       76.18       
H           44.77314    75.30695    77.48241    
H           40.22       75.8        84.02       
H           41.07       77.26       84.58       
H           41.95573    76.02951    83.68951    
H           38.62       76.59       82.17       
H           38.79       78.02       83.17       
H           38.95982    78.21989    81.45534    
H           41.27       69.98       75.59       
H           42.2        82.14       84.63       
S           39.25       70.03       78.65       
C           40.8        70.1        76.58       
C           39.83       69.28       77.13       
C           46.51       85.56       85.3        
C           45.34       85.9        84.67       
C           46.73       84.21       85.37       
N           45.02       87.18       84.31       
N           43.39       85.44       83.51       
S           43.6        87.07       83.5        
H           46.47       82.33       84.78       
H           47.63       83.92       85.83       
C           45.97       83.23       84.79       
C           44.5        84.94       84.08       
C           44.85       83.55       84.13       
C           60.53       93.04       89.9        
C           60.01       92.16       90.72       
S           59.69       93.33       88.36       
C           54.43       89.93       89.36       
C           54.97       90.82       88.36       
C           54.21       91.25       87.32       
C           52.96       90.7        87.12       
C           52.5        89.67       87.99       
C           53.25       89.28       89.1        
C           52.14       90.67       85.81       
C           51.05       89.6        86.13       
C           51.31       88.98       87.43       
C           55.45       89.65       90.41       
C           56.53       90.64       90.0        
C           56.29       91.23       88.75       
C           49.95       89.24       85.41       
C           49.18       88.15       85.82       
C           49.53       87.44       87.01       
C           50.58       87.87       87.85       
C           57.76       90.85       90.64       
C           58.69       91.76       90.14       
C           58.38       92.33       88.87       
C           57.19       92.15       88.16       
C           51.44       91.96       85.43       
C           53.11       90.18       84.68       
C           54.9        89.89       91.82       
C           55.87       88.16       90.25       
H           52.84       88.52       89.75       
H           54.59       92.12       86.8        
H           58.03       90.28       91.49       
H           56.98       92.7        87.19       
H           49.81       89.64       84.42       
H           50.76       87.4        88.76       
H           52.15       92.75       85.18       
H           50.95       91.74       84.43       
H           50.66951    92.28221    86.13045    
H           53.7        91.04       84.27       
H           52.41       89.84       83.93       
H           53.7825     89.39084    85.01625    
H           55.07       87.44       90.48       
H           56.74       88.04       90.9        
H           56.2036     87.88571    89.24921    
H           54.29       89.07       92.07       
H           55.76       89.74       92.5        
H           54.37921    90.84712    91.84815    
H           47.67       88.14       84.26       
H           60.49       91.91       91.64       
S           48.51       86.02       87.15       
C           48.06       87.62       85.15       
C           47.61       86.46       85.72       
C           64.08       95.5        89.15       
C           63.23       95.85       90.27       
C           63.89       94.26       88.61       
N           63.25       97.0        90.95       
N           61.19       95.62       91.48       
S           61.93       96.98       91.97       
H           62.68       92.61       88.24       
H           64.43       93.94       87.81       
C           62.81       93.45       88.94       
C           62.09       95.0        90.61       
C           61.85       93.77       89.95       
C           70.91       105.14      77.75       
C           70.11       104.03      77.56       
S           71.06       105.48      79.38       
C           67.7        100.78      82.02       
C           68.39       101.92      82.46       
C           68.59       102.18      83.83       
C           67.97       101.43      84.73       
C           67.2        100.33      84.26       
C           67.12       99.97       82.9        
C           68.14       101.38      86.28       
C           67.2        100.17      86.6        
C           66.81       99.51       85.37       
C           67.83       100.57      80.51       
C           68.49       101.87      80.09       
C           68.91       102.63      81.27       
C           66.74       99.67       87.8        
C           66.04       98.39       87.83       
C           65.75       97.78       86.6        
C           66.13       98.29       85.36       
C           68.81       102.3       78.84       
C           69.6        103.45      78.78       
C           70.04       104.15      79.9        
C           69.82       103.72      81.2        
C           69.59       101.01      86.69       
C           67.61       102.66      87.01       
C           68.68       99.28       80.24       
C           66.4        100.34      79.93       
H           66.8        99.07       82.54       
H           69.1        103.1       84.15       
H           68.48       101.8       77.94       
H           70.26       104.27      82.03       
H           67.09       100.09      88.68       
H           65.91       97.79       84.45       
H           70.33       101.81      86.46       
H           69.72       100.88      87.75       
H           69.94123    100.04764   86.3177     
H           66.58       102.8       86.75       
H           67.61       102.55      88.09       
H           68.06795    103.59021   86.67369    
H           66.11       99.35       80.1        
H           66.44       100.65      78.86       
H           65.61927    100.922     80.41973    
H           68.36       98.5        80.94       
H           68.53       98.85       79.29       
H           69.75347    99.42409    80.36248    
H           65.6        97.96       89.99       
H           69.87       103.64      76.58       
S           64.68       96.47       86.78       
C           65.52       97.61       88.91       
C           65.0        96.4        88.51       
C           72.49       107.93      74.57       
C           73.1        107.9       75.86       
C           71.51       107.05      74.45       
N           74.18       108.61      76.3        
N           73.31       107.11      78.03       
S           74.41       108.29      77.89       
H           70.26       105.45      75.14       
H           71.16       106.7       73.48       
C           71.0        106.14      75.44       
C           72.55       107.04      76.93       
C           71.52       106.05      76.71       
C           80.53       111.0       60.64       
C           79.43       110.17      60.75       
S           80.72       111.94      62.05       
C           76.01       110.06      65.74       
C           77.07       111.03      65.83       
C           77.29       111.77      66.97       
C           76.51       111.42      68.11       
C           75.58       110.39      68.07       
C           75.28       109.68      66.89       
C           76.72       111.86      69.57       
C           75.7        111.0       70.29       
C           75.06       110.11      69.38       
C           75.8        109.51      64.34       
C           77.13       109.92      63.76       
C           77.74       110.96      64.54       
C           75.38       110.96      71.62       
C           74.48       109.95      72.04       
C           73.72       109.16      71.13       
C           73.98       109.28      69.74       
C           77.63       109.56      62.51       
C           78.72       110.31      62.01       
C           79.31       111.24      62.82       
C           78.77       111.63      64.03       
C           78.12       111.59      70.18       
C           76.3        113.33      69.82       
C           75.66       107.99      64.34       
C           74.75       110.27      63.57       
H           74.62       108.82      66.87       
H           78.1        112.43      67.04       
H           77.27       108.75      61.89       
H           79.3        112.34      64.6        
H           75.9        111.62      72.28       
H           73.47       108.63      69.04       
H           78.82       112.14      69.62       
H           78.14       111.99      71.17       
H           78.34292    110.52415   70.13124    
H           75.23       113.53      69.59       
H           76.44       113.42      70.93       
H           76.86826    114.06062   69.24436    
H           74.32       109.77      62.72       
H           75.19       111.18      63.28       
H           73.83519    110.48648   64.12168    
H           74.74       107.65      64.78       
H           75.51       107.68      63.28       
H           76.42268    107.37842   64.82207    
H           74.51       110.18      74.25       
H           79.16       109.4       60.01       
S           72.48       108.18      71.92       
C           74.02       109.69      73.39       
C           72.98       108.73      73.49       
C           83.53       110.78      57.44       
C           83.07       111.99      57.93       
C           82.92       109.65      58.03       
N           83.66       113.17      57.64       
N           81.92       113.27      59.37       
S           82.72       114.28      58.34       
H           81.48       108.74      59.33       
H           83.25       108.68      57.78       
C           81.95       109.72      59.07       
C           82.08       112.02      58.97       
C           81.52       110.91      59.56       
C           89.6        106.41      43.31       
C           89.27       107.73      43.41       
S           89.93       105.64      44.82       
C           88.63       110.04      49.08       
C           88.97       108.65      48.95       
C           89.06       107.8       50.01       
C           88.59       108.35      51.21       
C           88.14       109.62      51.35       
C           88.27       110.55      50.3        
C           88.44       107.57      52.56       
C           87.58       108.56      53.31       
C           87.45       109.8       52.63       
C           88.56       110.68      47.71       
C           88.95       109.51      46.79       
C           89.19       108.35      47.56       
C           86.86       108.41      54.45       
C           86.02       109.43      54.91       
C           85.86       110.63      54.22       
C           86.59       110.83      53.04       
C           88.91       109.37      45.36       
C           89.25       108.12      44.77       
C           89.43       107.11      45.62       
C           89.42       107.17      46.99       
C           87.58       106.29      52.37       
C           89.78       107.31      53.29       
C           87.1        111.19      47.46       
C           89.61       111.86      47.58       
H           88.0        111.61      50.4        
H           89.24       106.75      49.86       
H           88.39       110.11      44.71       
H           89.44       106.24      47.55       
H           86.82       107.47      55.0        
H           86.64       111.83      52.6        
H           88.16       105.49      51.94       
H           87.09       105.85      53.28       
H           86.71006    106.43615   51.72973    
H           90.34       108.26      53.44       
H           89.56       107.06      54.3        
H           90.38622    106.50409   52.87635    
H           89.43       112.67      48.3        
H           90.59       111.5       47.85       
H           89.78854    112.36815   46.63237    
H           87.16       112.01      46.8        
H           86.76       111.64      48.37       
H           86.38868    110.4212    47.15823    
H           85.35       108.6       56.81       
H           89.12       108.38      42.58       
S           84.69       111.66      54.99       
C           85.27       109.4       56.13       
C           84.49       110.53      56.36       
C           90.27       103.81      39.77       
C           89.45       105.02      39.66       
C           90.82       103.61      40.98       
N           88.74       105.33      38.59       
N           88.28       106.85      40.48       
S           87.72       106.58      39.03       
H           91.0        104.21      43.0        
H           91.6        102.85      41.11       
C           90.52       104.47      42.13       
C           89.21       105.91      40.79       
C           89.8        105.65      42.06       
C           95.46       96.23       25.89       
C           95.33       95.6        27.1        
S           94.76       97.9        26.0        
C           93.01       98.1        32.04       
C           92.97       98.96       30.99       
C           92.59       100.28      31.06       
C           92.23       100.74      32.33       
C           92.29       99.89       33.5        
C           92.68       98.59       33.33       
C           92.01       102.19      32.74       
C           91.73       102.07      34.18       
C           91.85       100.74      34.66       
C           93.56       96.7        31.74       
C           93.64       96.86       30.26       
C           93.34       98.2        29.82       
C           91.37       103.02      35.07       
C           91.13       102.68      36.39       
C           91.35       101.32      36.87       
C           91.7        100.32      35.99       
C           94.23       95.97       29.39       
C           94.56       96.36       28.07       
C           94.24       97.63       27.65       
C           93.64       98.55       28.48       
C           93.27       103.05      32.51       
C           90.75       102.89      32.13       
C           94.96       96.37       32.33       
C           92.52       95.66       32.16       
H           92.48       97.91       34.12       
H           92.81       101.01      30.22       
H           94.52       94.96       29.71       
H           93.66       99.59       28.24       
H           91.28       104.06      34.84       
H           92.04       99.33       36.32       
H           93.54       103.01      31.47       
H           93.1        104.05      32.76       
H           94.12629    102.71462   33.09513    
H           89.83       102.24      32.41       
H           90.53       103.86      32.68       
H           90.84183    103.09485   31.06337    
H           92.2        95.88       33.16       
H           92.94       94.68       32.06       
H           91.56002    95.78521    31.65914    
H           94.92       96.22       33.39       
H           95.36       95.44       31.89       
H           95.69072    97.15748    32.14555    
H           90.72       104.59      37.24       
H           95.81       94.62       27.38       
S           91.01       101.29      38.6        
C           90.72       103.53      37.4        
C           90.68       103.02      38.64       
C           97.75       95.24       22.31       
C           98.09       94.61       23.5        
C           96.72       96.12       22.35       
N           99.11       93.79       23.69       
N           97.83       94.17       25.76       
S           99.26       93.49       25.31       
H           95.24       97.16       23.4        
H           96.42       96.73       21.44       
C           96.01       96.44       23.49       
C           97.37       94.94       24.74       
C           96.21       95.8        24.7        
C           108.23      97.12       9.44        
C           107.58      98.08       10.15       
S           108.19      95.62       10.33       
C           104.19      97.22       15.11       
C           104.94      96.06       14.8        
C           104.72      94.82       15.45       
C           103.72      94.79       16.43       
C           102.88      95.88       16.61       
C           103.15      97.1        15.96       
C           103.35      93.57       17.32       
C           102.06      94.08       17.93       
C           101.86      95.44       17.53       
C           104.57      98.49       14.37       
C           105.54      97.79       13.34       
C           105.83      96.37       13.68       
C           101.35      93.52       18.99       
C           100.35      94.34       19.6        
C           100.16      95.64       19.15       
C           100.88      96.24       18.11       
C           106.05      98.43       12.22       
C           106.92      97.66       11.34       
C           107.21      96.28       11.64       
C           106.68      95.64       12.86       
C           103.31      92.26       16.39       
C           104.39      93.51       18.47       
C           103.42      99.34       13.79       
C           105.54      99.34       15.26       
H           102.56      97.94       16.2        
H           105.22      93.92       15.24       
H           105.85      99.51       12.05       
H           106.8       94.55       13.0        
H           101.52      92.49       19.25       
H           100.75      97.29       17.91       
H           104.14      92.18       15.69       
H           103.33      91.44       17.16       
H           102.39912   92.09184    15.81544    
H           104.53      94.48       19.0        
H           104.09      92.82       19.18       
H           105.30758   93.0018     18.17355    
H           105.49      100.32      14.73       
H           106.52      98.91       15.32       
H           105.16568   99.51996    16.26777    
H           102.7       99.6        14.54       
H           103.84      100.26      13.3        
H           102.8185    98.81634    13.04697    
H           99.56       93.06       21.15       
H           107.57      99.05       9.71        
S           98.79       96.37       19.97       
C           99.5        94.03       20.74       
C           98.59       95.05       21.1        
C           109.87      97.1        5.29        
C           109.53      98.27       5.95        
C           109.69      96.05       6.16        
N           109.64      99.52       5.46        
N           109.21      99.61       7.87        
S           109.54      100.63      6.63        
H           108.87      95.13       7.8         
H           109.73      95.04       5.71        
C           109.14      96.14       7.43        
C           109.16      98.39       7.34        
C           108.92      97.25       8.14        
C           108.68      94.26       -10.99      
C           109.63      93.62       -10.33      
S           107.67      95.2        -9.9        
C           110.32      94.18       -4.2        
C           109.44      94.97       -4.87       
C           108.83      96.07       -4.21       
C           109.15      96.3        -2.91       
C           110.08      95.47       -2.25       
C           110.61      94.34       -2.8        
C           108.82      97.52       -2.07       
C           109.55      97.28       -0.86       
C           110.09      95.97       -0.85       
C           111.07      93.28       -5.24       
C           110.21      93.58       -6.54       
C           109.26      94.58       -6.22       
C           109.58      97.95       0.3         
C           109.84      97.37       1.53        
C           110.5       96.17       1.53        
C           110.67      95.4        0.33        
C           110.5       93.25       -7.86       
C           109.63      93.77       -8.9        
C           108.6       94.73       -8.49       
C           108.47      95.24       -7.21       
C           109.25      98.91       -2.75       
C           107.32      97.61       -1.6        
C           112.51      93.64       -5.38       
C           110.93      91.75       -4.94       
H           111.22      93.7        -2.27       
H           108.12      96.74       -4.75       
H           111.27      92.53       -8.09       
H           107.73      96.01       -6.94       
H           109.26      98.98       0.29        
H           111.1       94.4        0.33        
H           108.48      99.16       -3.54       
H           109.19      99.69       -2.01       
H           110.21343   98.84762    -3.25597    
H           107.16      96.81       -0.79       
H           107.15      98.54       -1.13       
H           106.56981   97.46978    -2.37824    
H           111.48      91.4        -4.08       
H           111.3       91.19       -5.83       
H           109.89144   91.45124    -4.79773    
H           113.02      93.3        -4.53       
H           112.75      92.98       -6.23       
H           112.72053   94.70669    -5.45719    
H           109.28      98.89       3.1         
H           110.38      93.03       -10.86      
S           110.82      95.62       3.12        
C           109.72      97.92       2.87        
C           110.06      97.02       3.83        
C           107.29      94.22       -15.21      
C           108.05      93.15       -14.65      
C           106.94      95.23       -14.29      
N           108.59      92.11       -15.39      
N           109.25      92.06       -12.98      
S           109.57      91.27       -14.39      
H           107.04      96.04       -12.28      
H           106.47      96.15       -14.66      
C           107.35      95.16       -12.93      
C           108.5       93.14       -13.28      
C           108.26      94.24       -12.38      
C           111.29      96.47       -30.89      
C           110.74      97.49       -30.17      
S           111.26      94.96       -30.04      
C           108.53      96.71       -24.54      
C           108.81      95.56       -25.25      
C           108.61      94.27       -24.76      
C           107.99      94.17       -23.48      
C           107.67      95.32       -22.75      
C           108.04      96.58       -23.25      
C           107.79      92.95       -22.63      
C           107.34      93.57       -21.3       
C           107.24      94.98       -21.42      
C           108.74      97.95       -25.4       
C           109.38      97.38       -26.62      
C           109.53      95.99       -26.5       
C           107.15      92.97       -20.13      
C           106.89      93.74       -18.97      
C           106.82      95.14       -19.03      
C           107.03      95.76       -20.3       
C           109.9       98.0        -27.76      
C           110.44      97.19       -28.84      
C           110.67      95.79       -28.61      
C           110.21      95.21       -27.47      
C           106.67      92.01       -23.21      
C           109.13      92.2        -22.57      
C           107.35      98.55       -25.72      
C           109.72      99.01       -24.81      
H           107.83      97.5        -22.63      
H           108.69      93.35       -25.4       
H           109.98      99.08       -27.79      
H           110.35      94.15       -27.34      
H           107.25      91.91       -20.09      
H           107.05      96.87       -20.36      
H           106.84      91.01       -22.77      
H           106.82      91.87       -24.29      
H           105.70788   92.45946    -22.9642    
H           109.28      91.81       -23.6       
H           108.97      91.31       -21.9       
H           109.89537   92.88519    -22.20554   
H           110.11      99.53       -25.66      
H           110.61      98.59       -24.34      
H           109.27632   99.76644    -24.16266   
H           107.43      99.59       -26.08      
H           106.78      98.57       -24.75      
H           106.82317   97.99469    -26.49601   
H           107.08      92.26       -17.39      
H           110.6       98.44       -30.55      
S           106.81      95.88       -17.38      
C           106.95      93.31       -17.57      
C           106.99      94.34       -16.65      
C           112.73      96.47       -35.18      
C           111.61      97.24       -34.77      
C           113.24      95.75       -34.14      
N           110.83      98.0        -35.55      
N           109.94      97.83       -33.29      
S           109.56      98.55       -34.72      
H           113.42      95.21       -32.08      
H           114.07      95.09       -34.34      
C           112.81      95.83       -32.79      
C           111.14      97.2        -33.41      
C           111.75      96.49       -32.31      
C           118.76      90.14       -49.09      
C           119.44      89.93       -47.9       
S           117.56      91.41       -48.93      
C           117.99      93.03       -42.88      
C           117.44      93.52       -44.07      
C           116.36      94.48       -44.02      
C           115.79      94.77       -42.84      
C           116.46      94.36       -41.65      
C           117.56      93.47       -41.66      
C           114.55      95.58       -42.68      
C           114.43      95.52       -41.15      
C           115.62      94.87       -40.57      
C           119.08      92.03       -43.24      
C           119.01      91.95       -44.78      
C           118.03      92.85       -45.2       
C           113.36      96.0        -40.32      
C           113.48      95.82       -38.92      
C           114.68      95.17       -38.4       
C           115.71      94.74       -39.2       
C           119.7       91.15       -45.66      
C           119.1       90.95       -46.92      
C           118.02      91.78       -47.27      
C           117.51      92.77       -46.48      
C           114.97      97.03       -43.14      
C           113.32      95.07       -43.37      
C           120.4       92.59       -42.8       
C           118.97      90.57       -42.6       
H           118.06      93.26       -40.74      
H           115.89      94.8        -44.96      
H           120.52      90.47       -45.3       
H           116.67      93.36       -46.71      
H           112.61      96.64       -40.86      
H           116.54      94.16       -38.8       
H           114.94      97.01       -44.21      
H           116.0       97.31       -42.88      
H           114.37425   97.79894    -42.64816   
H           113.57      94.82       -44.41      
H           112.5       95.83       -43.36      
H           112.94579   94.13448    -42.95421   
H           119.98      90.16       -42.39      
H           118.4       89.96       -43.31      
H           118.4124    90.5557     -41.66353   
H           120.65      92.35       -41.78      
H           121.29      92.17       -43.28      
H           120.45787   93.66781    -42.95191   
H           111.76      96.8        -37.88      
H           120.24      89.27       -47.8       
S           114.76      95.25       -36.69      
C           112.7       96.29       -37.78      
C           113.18      96.09       -36.5       
C           117.86      87.47       -52.47      
C           118.23      86.93       -51.22      
C           117.79      88.83       -52.47      
N           118.27      85.65       -50.98      
N           118.85      86.89       -48.97      
S           118.8       85.33       -49.5       
H           118.09      90.71       -51.6       
H           117.46      89.39       -53.31      
C           118.22      89.66       -51.42      
C           118.66      87.75       -50.04      
C           118.57      89.18       -50.19      
H           39.72       68.25       77.0        
H           117.79      86.9        -53.41      
