612

C           12.39       90.41       38.36       
C           11.76       90.41       39.58       
S           12.8        88.75       37.82       
C           12.31       85.48       43.2        
C           12.69       85.33       41.89       
C           13.28       84.14       41.44       
C           13.55       83.2        42.37       
C           13.37       83.42       43.71       
C           12.63       84.53       44.14       
C           14.39       81.88       42.08       
C           14.56       81.41       43.56       
C           13.91       82.32       44.48       
C           11.88       86.91       43.49       
C           11.92       87.52       42.1        
C           12.38       86.56       41.18       
C           15.24       80.27       44.06       
C           15.24       80.0        45.44       
C           14.53       80.9        46.29       
C           13.86       82.07       45.85       
C           11.51       88.78       41.58       
C           11.83       89.1        40.19       
C           12.42       88.13       39.35       
C           12.66       86.83       39.85       
C           13.62       80.77       41.39       
C           15.72       82.23       41.34       
C           10.45       86.88       44.1        
C           12.83       87.66       44.46       
H           12.32       84.61       45.16       
H           13.58       84.01       40.44       
H           10.99       89.56       42.1        
H           13.06       86.07       39.22       
H           15.78       79.59       43.4        
H           13.29       82.64       46.54       
H           12.95       81.21       40.65       
H           12.92       80.25       41.98       
H           14.18963    79.97807    40.90373    
H           15.5        82.53       40.34       
H           16.38       81.32       41.16       
H           16.34884    82.96853    41.83723    
H           12.72       87.41       45.52       
H           12.88       88.76       44.33       
H           13.8774     87.46892    44.22646    
H           10.4        86.15       44.87       
H           10.32       87.87       44.58       
H           9.66527     86.67312    43.37234    
H           16.39       78.11       45.79       
H           11.37       91.28       40.08       
S           14.74       80.46       47.96       
C           15.83       78.94       46.25       
C           15.75       79.13       47.54       
C           13.51       94.08       36.26       
C           13.58       92.87       35.52       
C           13.06       93.95       37.54       
N           13.97       92.65       34.23       
N           13.75       90.5        35.5        
S           13.96       91.0        33.97       
H           12.54       92.72       39.17       
H           13.15       94.84       38.14       
C           12.73       92.72       38.13       
C           13.38       91.59       36.22       
C           12.74       91.56       37.49       
C           19.4        108.15      30.36       
C           19.18       107.1       29.51       
S           18.7        107.93      31.92       
C           15.75       102.39      31.22       
C           15.9        103.38      32.24       
C           15.52       103.23      33.49       
C           15.09       101.97      33.81       
C           14.97       100.9       32.89       
C           15.23       101.12      31.58       
C           14.97       101.49      35.22       
C           14.57       100.04      35.04       
C           14.65       99.7        33.68       
C           16.2        102.94      29.84       
C           17.05       104.14      30.32       
C           16.7        104.45      31.67       
C           14.37       99.08       35.94       
C           14.2        97.74       35.56       
C           14.18       97.43       34.21       
C           14.44       98.4        33.22       
C           17.83       104.92      29.56       
C           18.38       106.11      30.15       
C           18.06       106.36      31.49       
C           17.2        105.58      32.26       
C           16.44       101.62      35.77       
C           13.91       102.21      35.97       
C           17.07       102.01      28.93       
C           15.09       103.47      28.83       
H           15.13       100.31      30.9        
H           15.64       103.99      34.25       
H           18.21       104.66      28.55       
H           16.92       105.78      33.24       
H           14.31       99.37       37.02       
H           14.49       98.19       32.14       
H           16.87       102.57      35.48       
H           17.11       100.85      35.27       
H           16.60545    101.48213   36.83851    
H           14.22       102.99      36.61       
H           13.31       101.52      36.54       
H           13.13743    102.69461   35.37302    
H           15.57       103.31      27.9        
H           14.88       104.45      29.06       
H           14.17829    102.8834    28.71692    
H           16.55       101.13      28.6        
H           17.4        102.61      28.04       
H           17.94386    101.65346   29.47529    
H           14.15       96.61       37.57       
H           19.51       107.07      28.46       
S           14.04       95.71       34.13       
C           14.14       96.58       36.46       
C           13.84       95.43       35.81       
C           22.06       111.69      29.89       
C           21.44       111.09      28.79       
C           21.64       111.15      31.03       
N           21.62       111.45      27.53       
N           19.88       109.76      27.74       
S           20.61       110.6       26.55       
H           20.43       109.85      32.21       
H           22.02       111.53      31.95       
C           20.75       110.07      31.22       
C           20.45       110.08      28.93       
C           20.15       109.44      30.18       
C           29.83       125.61      28.01       
C           29.64       125.15      29.25       
S           29.58       124.3       26.84       
C           28.09       119.34      30.39       
C           28.47       119.65      29.06       
C           28.38       118.63      28.09       
C           27.79       117.38      28.44       
C           27.36       117.11      29.77       
C           27.57       118.04      30.75       
C           27.67       116.12      27.65       
C           26.72       115.28      28.48       
C           26.65       115.86      29.75       
C           28.54       120.54      31.36       
C           28.88       121.62      30.33       
C           28.7        121.1       29.02       
C           26.1        114.09      28.2        
C           25.14       113.63      29.09       
C           25.03       114.27      30.34       
C           25.85       115.36      30.71       
C           29.03       123.0       30.52       
C           29.17       123.8       29.38       
C           29.11       123.19      28.1        
C           28.78       121.88      27.9        
C           27.05       116.5       26.31       
C           29.04       115.44      27.41       
C           27.43       120.91      32.35       
C           29.86       120.26      32.16       
H           27.17       117.86      31.72       
H           28.71       118.9       27.06       
H           29.06       123.36      31.52       
H           28.68       121.44      26.91       
H           26.11       113.62      27.25       
H           25.78       115.86      31.66       
H           27.71       117.25      25.78       
H           27.03       115.61      25.64       
H           26.15965    117.12681   26.35986    
H           29.17       114.95      28.37       
H           28.9        114.64      26.68       
H           29.89573    116.02919   27.08033    
H           29.62       119.66      33.04       
H           30.27       121.23      32.42       
H           30.58473    119.69869   31.57027    
H           27.26       119.98      33.0        
H           27.76       121.75      32.87       
H           26.46702    121.124     31.88634    
H           24.02       112.1       27.91       
H           29.89       125.74      30.14       
S           23.72       113.4       31.22       
C           24.14       112.66      28.86       
C           23.23       112.51      29.8        
C           30.7        129.53      26.3        
C           31.4        129.12      27.49       
C           29.85       128.62      25.79       
N           32.14       129.93      28.28       
N           31.77       127.62      29.2        
S           32.53       129.01      29.58       
H           28.96       126.68      25.77       
H           29.57       128.66      24.73       
C           29.63       127.32      26.33       
C           31.11       127.82      28.06       
C           30.28       126.89      27.45       
C           35.03       136.84      12.49       
C           33.79       136.36      12.76       
S           36.07       136.64      13.93       
C           31.86       134.7       18.27       
C           33.23       135.08      18.22       
C           34.09       135.11      19.35       
C           33.52       134.64      20.51       
C           32.11       134.26      20.59       
C           31.28       134.28      19.47       
C           34.29       134.35      21.8        
C           33.07       133.73      22.58       
C           31.87       133.74      21.92       
C           31.23       134.74      16.91       
C           32.49       135.02      16.09       
C           33.61       135.35      16.85       
C           33.19       133.17      23.78       
C           32.19       132.25      24.27       
C           30.94       132.3       23.56       
C           30.74       133.05      22.44       
C           32.54       135.23      14.72       
C           33.67       135.84      14.13       
C           34.79       136.02      14.91       
C           34.82       135.77      16.28       
C           35.34       133.25      21.52       
C           34.88       135.62      22.47       
C           30.48       133.43      16.6        
C           30.32       135.98      16.87       
H           30.29       133.88      19.48       
H           35.14       135.32      19.34       
H           31.68       135.18      14.13       
H           35.66       135.83      16.97       
H           34.21       133.08      24.19       
H           29.72       132.95      22.05       
H           35.63       132.87      22.52       
H           36.17       133.76      21.05       
H           35.04467    132.50808   20.77808    
H           35.85       135.81      22.06       
H           35.3        135.56      23.51       
H           34.40888    136.54818   22.14654    
H           29.66       135.74      17.73       
H           30.82       136.9       17.1        
H           29.68905    136.02853   15.98251    
H           29.87       133.45      15.69       
H           29.77       133.23      17.43       
H           31.16093    132.58231   16.52357    
H           33.11       130.92      25.83       
H           32.99       136.42      12.05       
S           29.81       131.25      24.36       
C           32.27       131.23      25.28       
C           31.06       130.68      25.46       
C           36.01       140.38      10.0        
C           36.99       139.37      10.25       
C           34.76       140.06      10.42       
N           38.23       139.37      9.79        
N           37.73       137.37      11.21       
S           38.98       138.02      10.35       
H           33.41       138.66      11.41       
H           33.95       140.81      10.19       
C           34.45       138.78      11.13       
C           36.65       138.16      11.07       
C           35.35       137.86      11.51       
C           38.35       156.3       7.33        
C           38.17       155.79      8.57        
S           38.85       155.06      6.16        
C           38.21       149.78      9.56        
C           38.67       150.17      8.26        
C           38.9        149.2       7.28        
C           38.63       147.84      7.51        
C           38.01       147.54      8.76        
C           37.74       148.5       9.75        
C           38.95       146.52      6.68        
C           38.14       145.53      7.46        
C           37.74       146.12      8.69        
C           38.31       150.94      10.53       
C           38.31       152.13      9.52        
C           38.67       151.63      8.22        
C           37.9        144.16      7.21        
C           37.24       143.43      8.25        
C           36.85       144.1       9.49        
C           37.09       145.44      9.65        
C           38.2        153.53      9.73        
C           38.48       154.39      8.69        
C           38.8        153.86      7.4         
C           38.9        152.49      7.17        
C           38.46       146.59      5.18        
C           40.41       146.08      6.83        
C           37.06       151.13      11.35       
C           39.57       150.94      11.48       
H           37.33       148.21      10.72       
H           39.26       149.52      6.33        
H           37.94       153.96      10.7        
H           39.09       152.15      6.13        
H           38.24       143.67      6.26        
H           36.77       145.96      10.54       
H           39.01       147.25      4.62        
H           38.73       145.57      4.78        
H           37.41809    146.83311   4.97162     
H           40.79       145.91      7.85        
H           40.64       145.19      6.24        
H           41.06497    146.89695   6.52717     
H           39.38       151.53      12.39       
H           40.47       151.29      10.93       
H           39.93007    149.93901   11.71764    
H           36.99       150.38      12.08       
H           37.04       152.08      11.9        
H           36.12428    151.15095   10.79136    
H           36.85       141.43      7.43        
H           37.82       156.35      9.44        
S           36.13       142.97      10.61       
C           36.79       142.08      8.31        
C           36.29       141.67      9.47        
C           37.93       160.44      5.68        
C           37.78       160.14      7.06        
C           38.15       159.33      4.89        
N           37.56       161.07      8.07        
N           37.56       158.81      8.87        
S           37.29       160.27      9.47        
H           38.24       157.24      4.69        
H           38.22       159.39      3.85        
C           38.32       158.01      5.43        
C           37.83       158.82      7.62        
C           38.21       157.69      6.76        
C           42.83       174.01      -2.62       
C           42.56       172.77      -3.14       
S           42.23       174.08      -0.96       
C           40.07       168.05      -0.1        
C           40.29       169.23      0.71        
C           39.97       169.31      2.03        
C           39.39       168.11      2.62        
C           39.31       166.94      1.86        
C           39.66       166.89      0.52        
C           38.77       167.82      4.0         
C           38.56       166.31      3.96        
C           38.89       165.8       2.68        
C           40.34       168.33      -1.54       
C           40.91       169.75      -1.47       
C           40.87       170.25      -0.15       
C           38.15       165.5       4.91        
C           38.0        164.14      4.65        
C           38.32       163.62      3.37        
C           38.82       164.44      2.39        
C           41.5        170.55      -2.45       
C           41.89       171.9       -2.2        
C           41.69       172.39      -0.89       
C           41.24       171.6       0.17        
C           39.67       168.3       5.15        
C           37.37       168.43      4.14        
C           41.4        167.29      -2.04       
C           39.11       168.45      -2.47       
H           39.59       165.97      0.02        
H           40.15       170.18      2.61        
H           41.69       170.18      -3.42       
H           41.12       172.02      1.14        
H           37.98       165.88      5.92        
H           39.24       164.04      1.46        
H           39.8        169.35      5.12        
H           39.3        168.09      6.15        
H           40.64314    167.80983   5.17883     
H           36.64       167.81      3.61        
H           37.04       168.28      5.21        
H           37.29236    169.48879   3.89295     
H           38.68       167.45      -2.52       
H           39.46       168.78      -3.46       
H           38.31794    169.05982   -2.03542    
H           41.12       166.98      -3.08       
H           41.33       166.31      -1.47       
H           42.45134    167.57737   -2.05402    
H           37.79       163.19      6.64        
H           42.92       172.4       -4.1        
S           38.29       161.8       3.34        
C           37.84       163.05      5.57        
C           37.93       161.78      5.02        
C           44.37       177.23      -4.97       
C           44.91       175.94      -5.15       
C           43.47       177.45      -4.01       
N           45.75       175.55      -6.09       
N           44.97       173.61      -4.67       
S           46.06       173.9       -5.9        
H           42.29       176.67      -2.36       
H           42.99       178.41      -3.86       
C           43.06       176.44      -3.08       
C           44.5        174.85      -4.28       
C           43.49       175.12      -3.24       
C           46.24       190.53      -14.61      
C           45.09       190.04      -14.27      
S           47.52       189.34      -14.29      
C           44.25       185.11      -11.1       
C           45.47       185.17      -11.77      
C           46.43       184.18      -11.5       
C           46.21       183.21      -10.56      
C           44.93       183.11      -9.94       
C           43.93       184.05      -10.24      
C           47.15       182.09      -10.07      
C           46.24       181.31      -9.14       
C           45.01       182.06      -8.98       
C           43.3        186.3       -11.42      
C           44.23       186.92      -12.42      
C           45.53       186.36      -12.47      
C           46.57       180.16      -8.42       
C           45.62       179.71      -7.48       
C           44.42       180.37      -7.27       
C           44.13       181.58      -8.02       
C           44.03       188.09      -13.11      
C           45.1        188.76      -13.66      
C           46.37       188.17      -13.7       
C           46.6        186.93      -13.06      
C           47.63       181.29      -11.3       
C           48.31       182.61      -9.17       
C           41.92       185.96      -12.0       
C           43.15       187.22      -10.15      
H           43.0        184.13      -9.72       
H           47.28       184.22      -12.16      
H           43.0        188.55      -13.26      
H           47.61       186.44      -13.05      
H           47.44       179.58      -8.75       
H           43.05       181.88      -8.01       
H           48.37       181.9       -11.89      
H           48.21       180.35      -10.94      
H           46.81291    180.95894   -11.94099   
H           47.77       183.09      -8.35       
H           48.92       181.83      -8.8        
H           48.91161    183.39067   -9.63553    
H           42.65       186.63      -9.32       
H           44.1        187.37      -9.8        
H           42.62532    188.16734   -10.27388   
H           41.53       186.84      -12.38      
H           41.23       185.8       -11.22      
H           41.97615    185.11067   -12.68087   
H           46.63       178.01      -6.45       
H           44.13       190.61      -14.25      
S           43.32       179.38      -6.36       
C           45.69       178.55      -6.65       
C           44.61       178.33      -5.84       
C           47.55       194.67      -14.92      
C           46.54       194.21      -15.86      
C           47.86       193.78      -13.99      
N           46.02       194.91      -16.82      
N           45.03       192.58      -16.62      
S           44.92       193.94      -17.62      
H           47.89       191.8       -13.25      
H           48.54       194.09      -13.18      
C           47.5        192.4       -13.99      
C           45.98       192.83      -15.72      
C           46.64       191.86      -14.88      
C           56.6        208.68      -13.71      
C           56.95       207.45      -13.15      
S           55.06       208.51      -14.5       
C           53.84       202.28      -14.1       
C           53.2        203.48      -14.66      
C           51.86       203.46      -15.11      
C           51.26       202.24      -14.99      
C           51.85       201.07      -14.44      
C           53.16       201.09      -13.97      
C           49.76       201.97      -15.28      
C           49.6        200.5       -14.85      
C           50.82       199.97      -14.46      
C           55.24       202.59      -13.41      
C           55.26       204.11      -13.74      
C           54.1        204.59      -14.38      
C           48.58       199.66      -15.18      
C           48.65       198.24      -14.99      
C           49.84       197.77      -14.39      
C           50.87       198.61      -14.1       
C           56.25       205.01      -13.31      
C           56.05       206.39      -13.53      
C           54.95       206.78      -14.33      
C           53.92       205.89      -14.71      
C           48.8        202.93      -14.58      
C           49.58       201.99      -16.83      
C           55.35       202.39      -11.91      
C           56.12       201.72      -14.28      
H           53.52       200.26      -13.32      
H           51.29       204.27      -15.55      
H           57.18       204.62      -12.92      
H           53.02       206.25      -15.21      
H           47.67       200.06      -15.55      
H           51.86       198.17      -13.86      
H           49.13       203.97      -14.74      
H           47.85       203.05      -15.07      
H           48.72816    202.85098   -13.49524   
H           50.11       201.17      -17.34      
H           48.55       201.74      -17.14      
H           49.93229    202.81435   -17.45003   
H           55.64       201.68      -15.29      
H           56.23       200.71      -13.93      
H           57.15089    202.07064   -14.32909   
H           56.36       202.63      -11.58      
H           55.34       201.29      -11.77      
H           54.52561    202.85808   -11.37205   
H           46.78       197.32      -15.83      
H           57.89       207.35      -12.59      
S           49.84       196.06      -14.32      
C           47.73       197.19      -15.31      
C           48.16       195.96      -14.85      
C           58.72       212.29      -12.34      
C           58.38       212.04      -13.73      
C           58.26       211.28      -11.5       
N           58.79       212.71      -14.82      
N           57.4        210.87      -15.48      
S           58.29       212.02      -16.2       
H           57.12       209.52      -11.17      
H           58.55       211.27      -10.42      
C           57.41       210.19      -11.92      
C           57.65       210.9       -14.15      
C           57.14       209.96      -13.25      
C           70.86       221.69      -5.8        
C           70.14       220.78      -5.06       
S           70.21       221.82      -7.43       
C           66.06       217.09      -7.9        
C           66.43       218.23      -8.66       
C           65.95       218.45      -9.98       
C           65.02       217.5       -10.49      
C           64.62       216.46      -9.68       
C           65.06       216.26      -8.32       
C           64.32       217.56      -11.83      
C           63.32       216.38      -11.63      
C           63.53       215.76      -10.36      
C           66.64       217.13      -6.51       
C           67.4        218.46      -6.54       
C           67.38       218.98      -7.85       
C           62.35       215.9       -12.45      
C           61.56       214.77      -12.09      
C           61.74       214.21      -10.79      
C           62.82       214.65      -9.99       
C           68.26       218.99      -5.52       
C           69.17       220.03      -5.89       
C           69.01       220.57      -7.19       
C           68.06       220.13      -8.14       
C           63.55       218.89      -11.97      
C           65.17       217.29      -13.09      
C           65.58       217.24      -5.36       
C           67.66       215.99      -6.2        
H           64.71       215.4       -7.81       
H           66.33       219.25      -10.68      
H           68.23       218.57      -4.51       
H           68.08       220.43      -9.16       
H           62.19       216.29      -13.41      
H           62.88       214.3       -8.97       
H           62.91       218.87      -12.87      
H           64.29       219.71      -12.0       
H           62.92567    219.04608   -11.09026   
H           65.89       218.11      -13.18      
H           64.59       217.43      -14.09      
H           65.66899    216.32095   -13.08277   
H           67.18       215.04      -5.92       
H           68.27       216.25      -5.33       
H           68.31098    215.74069   -7.03796    
H           65.93       217.17      -4.35       
H           64.93       216.42      -5.69       
H           64.97209    218.14462   -5.37447    
H           60.05       214.55      -13.68      
H           70.43       220.45      -4.07       
S           60.54       212.95      -10.46      
C           60.45       214.14      -12.79      
C           59.77       213.22      -12.01      
C           74.13       224.42      -4.84       
C           74.15       223.7       -6.05       
C           73.06       224.18      -4.0        
N           75.03       223.79      -6.99       
N           73.15       222.31      -7.62       
S           74.59       222.82      -8.25       
H           71.34       222.98      -3.49       
H           73.01       224.59      -3.03       
C           72.03       223.18      -4.27       
C           73.08       222.77      -6.34       
C           72.01       222.56      -5.46       
C           83.11       237.5       0.09        
C           81.76       237.48      -0.01       
S           83.74       235.91      -0.41       
C           78.58       232.69      -1.98       
C           80.01       232.48      -1.97       
C           80.64       231.25      -2.33       
C           79.72       230.2       -2.71       
C           78.31       230.45      -2.78       
C           77.76       231.66      -2.35       
C           80.03       228.64      -2.87       
C           78.69       228.19      -3.43       
C           77.69       229.19      -3.14       
C           78.11       234.14      -1.61       
C           79.52       234.73      -1.29       
C           80.58       233.74      -1.43       
C           78.32       226.9       -3.87       
C           76.96       226.6       -3.99       
C           76.0        227.59      -3.74       
C           76.36       228.9       -3.3        
C           79.8        235.99      -0.78       
C           81.16       236.29      -0.5        
C           82.12       235.25      -0.65       
C           81.87       233.98      -1.17       
C           81.19       228.39      -3.86       
C           80.13       227.85      -1.5        
C           77.54       234.88      -2.82       
C           77.28       234.29      -0.31       
H           76.71       231.8       -2.24       
H           81.7        231.06      -2.16       
H           79.08       236.76      -0.73       
H           82.58       233.15      -1.19       
H           79.08       226.17      -4.19       
H           75.62       229.59      -3.0        
H           82.04       228.99      -3.39       
H           81.45       227.36      -3.83       
H           81.04388    228.79356   -4.86194    
H           79.1        227.48      -1.26       
H           80.65       226.92      -1.75       
H           80.63934    228.32347   -0.66066    
H           77.03       235.34      -0.18       
H           77.82       234.06      0.61        
H           76.32306    233.76931   -0.34518    
H           77.09       235.79      -2.49       
H           76.71       234.28      -3.18       
H           78.16629    234.97852   -3.70666    
H           77.06       224.53      -4.75       
H           81.19       238.37      0.13        
S           74.38       226.95      -3.96       
C           76.45       225.38      -4.49       
C           75.11       225.41      -4.5        
C           86.1        240.59      1.34        
C           84.69       240.85      1.24        
C           86.34       239.24      1.08        
N           84.15       242.1       1.57        
N           82.48       240.48      0.66        
S           82.56       242.04      1.15        
H           85.74       237.34      0.49        
H           87.39       238.9       1.07        
C           85.34       238.32      0.69        
C           83.64       239.89      0.82        
C           83.97       238.54      0.54        
H           16.56       78.79       48.16       
H           86.86       241.34      1.13        
