612

C           62.58       48.33       21.28       
C           62.35       49.64       20.93       
S           64.25       47.86       21.14       
C           66.58       53.4        18.92       
C           67.04       52.17       19.29       
C           68.35       51.73       19.05       
C           69.03       52.5        18.19       
C           68.64       53.77       17.74       
C           67.39       54.24       18.1        
C           70.44       52.08       17.63       
C           70.71       53.33       16.75       
C           69.72       54.28       16.88       
C           65.12       53.49       19.11       
C           64.8        52.2        19.82       
C           65.97       51.37       19.94       
C           71.76       53.56       15.89       
C           71.88       54.74       15.11       
C           70.82       55.67       15.32       
C           69.78       55.44       16.2        
C           63.61       51.69       20.26       
C           63.53       50.34       20.59       
C           64.67       49.55       20.71       
C           65.91       50.05       20.32       
C           71.44       51.96       18.79       
C           70.33       50.82       16.69       
C           64.84       54.77       20.02       
C           64.39       53.42       17.75       
H           67.23       55.24       17.85       
H           68.63       50.74       19.44       
H           62.72       52.23       20.12       
H           66.81       49.49       20.44       
H           72.48       52.83       15.71       
H           68.98       56.19       16.28       
H           71.2        51.05       19.46       
H           72.44       51.76       18.39       
H           71.45471    52.8424     19.42974    
H           69.6        51.1        15.91       
H           71.27       50.73       16.2        
H           69.94702    49.94057    17.20773    
H           64.31       52.41       17.36       
H           65.05       53.75       16.95       
H           63.35674    53.76442    17.79305    
H           65.13       55.72       19.61       
H           63.79       54.87       20.21       
H           65.32626    54.69359    20.99253    
H           73.67       54.52       13.92       
H           61.38       50.1        21.14       
S           71.06       57.05       14.3        
C           72.82       55.08       14.19       
C           72.52       56.37       13.69       
C           59.47       45.59       22.73       
C           59.19       46.45       21.61       
C           60.72       45.63       23.24       
N           58.0        46.56       20.9        
N           59.87       48.11       20.11       
S           58.3        47.61       19.66       
H           62.7        46.34       23.22       
H           60.97       45.03       24.08       
C           61.74       46.43       22.68       
C           60.27       47.27       21.08       
C           61.61       47.31       21.63       
C           48.64       36.51       31.37       
C           49.7        37.08       31.98       
S           48.42       37.31       29.84       
C           53.57       40.85       29.05       
C           52.37       40.59       28.41       
C           52.11       41.12       27.18       
C           53.11       41.85       26.54       
C           54.41       41.92       27.1        
C           54.62       41.45       28.35       
C           53.06       42.45       25.15       
C           54.56       42.74       24.92       
C           55.27       42.57       26.13       
C           53.56       40.35       30.53       
C           52.26       39.51       30.5        
C           51.6        39.67       29.22       
C           55.07       43.35       23.84       
C           56.45       43.74       23.93       
C           57.22       43.54       25.17       
C           56.62       42.9        26.24       
C           51.66       38.8        31.51       
C           50.46       38.08       31.23       
C           49.89       38.14       29.86       
C           50.51       38.87       28.88       
C           52.66       41.4        24.01       
C           52.36       43.86       25.07       
C           54.76       39.4        30.75       
C           53.48       41.45       31.58       
H           55.57       41.63       28.82       
H           51.2        40.83       26.69       
H           52.05       38.58       32.45       
H           50.07       39.01       27.9        
H           54.44       43.74       22.98       
H           57.17       42.69       27.09       
H           51.64       41.28       24.07       
H           52.85       41.82       23.04       
H           53.20038    40.45434    24.05266    
H           53.13       44.47       25.45       
H           52.2        44.18       24.02       
H           51.42688    43.96206    25.62404    
H           53.57       41.0        32.56       
H           52.48       41.9        31.63       
H           54.28525    42.18335    31.53686    
H           55.7        39.95       30.7        
H           54.63       39.11       31.77       
H           54.79428    38.5704     30.04382    
H           56.85       44.61       21.96       
H           49.98       36.77       32.97       
S           58.82       44.21       25.01       
C           57.23       44.43       22.98       
C           58.45       44.78       23.4        
C           45.99       33.07       32.05       
C           47.0        33.42       32.99       
C           45.76       34.07       31.07       
N           47.34       32.61       34.07       
N           48.67       34.68       33.82       
S           48.5        33.41       34.84       
H           46.44       35.85       30.1        
H           44.77       34.02       30.43       
C           46.64       35.18       30.9        
C           47.9        34.57       32.85       
C           47.75       35.42       31.73       
C           36.77       19.09       32.85       
C           37.36       19.57       31.7        
S           37.03       20.23       34.1        
C           40.69       24.73       31.41       
C           40.34       24.29       32.71       
C           40.72       25.03       33.79       
C           41.36       26.25       33.61       
C           41.72       26.63       32.27       
C           41.43       25.87       31.16       
C           41.64       27.3        34.66       
C           42.41       28.31       33.78       
C           42.46       27.89       32.42       
C           40.17       23.72       30.4        
C           39.48       22.63       31.28       
C           39.47       23.03       32.68       
C           43.05       29.48       34.19       
C           43.74       30.27       33.25       
C           43.85       29.83       31.85       
C           43.18       28.65       31.49       
C           38.75       21.53       30.87       
C           38.02       20.84       31.86       
C           37.99       21.34       33.22       
C           38.71       22.43       33.68       
C           40.41       28.02       35.3        
C           42.63       26.74       35.68       
C           39.15       24.31       29.41       
C           41.33       23.04       29.69       
H           41.67       26.14       30.15       
H           40.45       24.74       34.77       
H           38.68       21.22       29.86       
H           38.7        22.83       34.68       
H           42.96       29.82       35.25       
H           43.25       28.3        30.46       
H           40.69       28.73       36.01       
H           39.91       27.23       35.86       
H           39.66351    28.32697    34.56746    
H           41.96       26.18       36.29       
H           43.06       27.54       36.3        
H           43.36061    26.07897    35.2138     
H           41.77       23.7        28.97       
H           40.95       22.24       29.03       
H           42.0761     22.62076    30.36504    
H           39.61       25.14       28.88       
H           38.89       23.51       28.73       
H           38.21093    24.74285    29.75481    
H           44.68       31.92       34.28       
H           37.43       19.07       30.76       
S           44.86       30.85       30.89       
C           44.49       31.48       33.36       
C           45.1        31.95       32.24       
C           35.36       15.0        33.89       
C           34.99       16.13       34.65       
C           36.13       15.33       32.78       
N           34.31       16.07       35.82       
N           34.98       18.42       35.19       
S           34.21       17.59       36.43       
H           37.11       16.7        31.58       
H           36.62       14.54       32.25       
C           36.51       16.67       32.51       
C           35.4        17.45       34.29       
C           36.15       17.79       33.2        
C           39.65       -0.66       34.44       
C           39.74       0.14        35.56       
S           38.57       0.13        33.26       
C           37.01       5.52        36.06       
C           36.59       4.71        34.96       
C           35.78       5.26        33.96       
C           35.54       6.66        34.04       
C           36.15       7.48        35.02       
C           36.81       6.88        36.1        
C           34.63       7.56        33.19       
C           35.09       8.94        33.6        
C           35.88       8.89        34.79       
C           37.95       4.73        36.97       
C           38.16       3.52        36.1        
C           37.3        3.46        35.01       
C           34.57       10.09       33.18       
C           34.87       11.29       33.88       
C           35.77       11.3        34.98       
C           36.23       10.09       35.48       
C           38.82       2.37        36.46       
C           38.9        1.33        35.56       
C           38.17       1.44        34.33       
C           37.35       2.53        34.01       
C           34.94       7.36        31.66       
C           33.1        7.45        33.45       
C           39.26       5.53        37.17       
C           37.29       4.44        38.32       
H           37.16       7.52        36.9        
H           35.27       4.67        33.18       
H           39.44       2.34        37.39       
H           36.89       2.6         33.0        
H           33.96       10.18       32.28       
H           36.98       10.13       36.25       
H           34.8        6.3         31.37       
H           34.21       7.88        31.08       
H           35.91821    7.75128     31.38051    
H           32.79       7.98        34.37       
H           32.62       8.02        32.73       
H           32.77806    6.4093      33.41256    
H           37.55       5.02        39.21       
H           37.53       3.44        38.54       
H           36.20451    4.41086     38.22529    
H           39.18       6.55        37.54       
H           39.79       5.0         37.92       
H           39.85949    5.50833     36.25992    
H           34.03       12.92       32.47       
H           40.49       -0.1        36.29       
S           36.11       12.96       35.51       
C           34.56       12.61       33.42       
C           35.09       13.59       34.2        
C           41.37       -4.7        33.49       
C           42.0        -3.83       34.45       
C           40.38       -4.08       32.81       
N           43.04       -4.19       35.21       
N           42.15       -1.93       35.69       
S           43.28       -2.96       36.25       
H           38.94       -2.46       32.75       
H           39.88       -4.75       32.07       
C           39.85       -2.79       33.15       
C           41.45       -2.5        34.77       
C           40.29       -1.92       34.12       
C           42.73       -21.08      33.03       
C           42.99       -20.31      34.07       
S           42.43       -20.08      31.54       
C           42.99       -14.21      33.9        
C           43.0        -14.85      32.69       
C           42.9        -14.09      31.46       
C           42.82       -12.69      31.64       
C           42.86       -12.12      32.95       
C           43.06       -12.89      34.07       
C           42.62       -11.6       30.57       
C           42.43       -10.38      31.48       
C           42.56       -10.71      32.85       
C           43.1        -15.3       34.99       
C           43.3        -16.61      34.24       
C           43.12       -16.29      32.84       
C           42.15       -9.12       31.09       
C           42.07       -8.11       32.09       
C           42.31       -8.43       33.5        
C           42.52       -9.72       33.85       
C           43.33       -17.89      34.75       
C           43.06       -18.88      33.75       
C           42.82       -18.62      32.41       
C           42.99       -17.32      31.86       
C           43.83       -11.56      29.61       
C           41.27       -11.86      29.83       
C           44.3        -14.98      35.92       
C           41.81       -15.31      35.84       
H           42.89       -12.37      35.04       
H           42.8        -14.57      30.48       
H           43.44       -18.07      35.81       
H           42.78       -17.04      30.82       
H           41.87       -8.94       30.03       
H           42.49       -9.97       34.94       
H           43.98       -12.51      29.12       
H           44.67       -11.5       30.25       
H           43.85765    -10.67519   28.97404    
H           41.56       -12.64      29.14       
H           40.92       -10.98      29.29       
H           40.44886    -12.22988   30.44401    
H           41.87       -14.67      36.73       
H           41.62       -16.32      36.1        
H           40.96964    -14.95285   35.24474    
H           44.2        -14.01      36.36       
H           44.31       -15.71      36.73       
H           45.28207    -14.92223   35.45063    
H           41.45       -6.28       31.1        
H           43.24       -20.59      35.05       
S           41.94       -7.14       34.61       
C           41.69       -6.71       32.05       
C           41.74       -6.08       33.25       
C           42.78       -25.48      32.33       
C           42.91       -24.93      33.65       
C           42.46       -24.54      31.4        
N           43.13       -25.71      34.74       
N           43.08       -23.28      35.28       
S           43.11       -24.74      36.09       
H           42.4        -22.5       30.7        
H           42.3        -24.88      30.36       
C           42.46       -23.09      31.62       
C           42.87       -23.47      33.96       
C           42.67       -22.54      32.85       
C           44.59       -40.56      25.53       
C           45.13       -39.43      25.1        
S           43.86       -40.36      27.14       
C           44.29       -33.99      27.82       
C           43.7        -35.09      28.52       
C           43.03       -34.95      29.78       
C           42.89       -33.66      30.26       
C           43.39       -32.59      29.47       
C           44.19       -32.72      28.35       
C           42.52       -33.1       31.64       
C           42.46       -31.58      31.42       
C           43.0        -31.32      30.11       
C           44.91       -34.48      26.49       
C           44.69       -35.97      26.54       
C           44.04       -36.33      27.78       
C           42.29       -30.59      32.32       
C           42.6        -29.29      31.93       
C           42.97       -29.01      30.57       
C           43.31       -30.01      29.66       
C           45.0        -36.89      25.62       
C           44.87       -38.28      25.92       
C           44.16       -38.6       27.07       
C           43.82       -37.7       28.08       
C           41.19       -33.73      32.16       
C           43.67       -33.15      32.69       
C           44.13       -33.79      25.36       
C           46.39       -34.0       26.46       
H           44.69       -31.85      27.86       
H           42.75       -35.81      30.34       
H           45.41       -36.56      24.61       
H           43.07       -38.03      28.89       
H           41.98       -30.73      33.36       
H           43.63       -29.8       28.6        
H           40.83       -33.39      33.11       
H           41.48       -34.76      32.41       
H           40.43101    -33.78675   31.37973    
H           44.41       -32.5       32.36       
H           43.36       -32.8       33.68       
H           44.09665    -34.15263   32.71844    
H           46.44       -32.98      26.79       
H           46.58       -34.03      25.36       
H           47.12935    -34.6696    26.89943    
H           44.39       -32.73      25.26       
H           44.3        -34.2       24.34       
H           43.0555     -33.84582   25.53443    
H           42.54       -28.11      33.69       
H           45.51       -39.45      24.06       
S           43.35       -27.33      30.32       
C           42.64       -28.08      32.67       
C           42.77       -26.91      31.89       
C           43.9        -44.17      23.14       
C           43.76       -42.92      22.58       
C           44.08       -44.15      24.44       
N           43.6        -42.78      21.32       
N           43.9        -40.63      22.54       
S           43.69       -41.14      21.02       
H           44.67       -43.13      26.31       
H           44.3        -45.14      24.87       
C           44.35       -42.96      25.28       
C           43.98       -41.66      23.35       
C           44.22       -41.69      24.76       
C           46.8        -53.94      10.94       
C           47.37       -54.07      12.16       
S           45.34       -52.99      11.16       
C           45.21       -51.87      17.43       
C           44.3        -51.76      16.33       
C           43.19       -50.95      16.47       
C           43.08       -50.2       17.69       
C           44.01       -50.32      18.72       
C           45.09       -51.14      18.59       
C           42.05       -49.07      17.84       
C           42.63       -48.57      19.15       
C           43.7        -49.29      19.68       
C           46.33       -52.86      17.07       
C           46.1        -53.07      15.59       
C           44.9        -52.37      15.12       
C           42.21       -47.44      19.75       
C           42.93       -46.97      20.83       
C           44.01       -47.69      21.39       
C           44.38       -48.92      20.85       
C           46.92       -53.69      14.64       
C           46.61       -53.53      13.29       
C           45.5        -52.84      12.84       
C           44.63       -52.25      13.78       
C           42.22       -47.98      16.8        
C           40.56       -49.42      18.08       
C           47.69       -52.16      17.36       
C           46.1        -54.17      17.86       
H           45.82       -51.15      19.38       
H           42.57       -50.69      15.58       
H           47.75       -54.38      15.0        
H           43.82       -51.71      13.46       
H           41.38       -46.88      19.42       
H           45.23       -49.45      21.27       
H           41.83       -48.42      15.89       
H           41.58       -47.14      16.95       
H           43.25857    -47.67049   16.68307    
H           40.48       -50.08      18.96       
H           40.06       -48.47      18.26       
H           40.10922    -49.96234   17.24888    
H           46.72       -53.98      18.74       
H           46.39       -55.01      17.24       
H           45.05434    -54.27166   18.15046    
H           47.84       -52.22      18.45       
H           48.55       -52.74      17.04       
H           47.84756    -51.18723   16.89417    
H           41.98       -45.07      21.1        
H           48.3        -54.59      12.34       
S           44.68       -46.86      22.76       
C           42.79       -45.69      21.42       
C           43.69       -45.44      22.41       
C           48.29       -54.99      6.89        
C           49.05       -55.24      8.01        
C           47.09       -54.37      7.13        
N           50.19       -55.87      7.94        
N           49.53       -55.32      10.3        
S           50.73       -56.11      9.54        
H           45.7        -53.46      8.41        
H           46.46       -54.15      6.32        
C           46.64       -53.98      8.46        
C           48.61       -54.89      9.37        
C           47.32       -54.24      9.64        
C           55.31       -60.42      -6.61       
C           55.9        -59.54      -5.82       
S           53.57       -60.32      -6.54       
C           53.13       -56.59      -1.52       
C           52.22       -57.13      -2.44       
C           50.8        -56.91      -2.31       
C           50.28       -56.45      -1.13       
C           51.23       -56.13      -0.14       
C           52.59       -56.02      -0.32       
C           48.81       -56.33      -0.65       
C           49.07       -55.91      0.81        
C           50.46       -55.75      1.05        
C           54.56       -56.82      -1.93       
C           54.37       -57.39      -3.3        
C           52.95       -57.75      -3.53       
C           48.1        -55.83      1.88        
C           48.64       -55.54      3.12        
C           50.05       -55.29      3.34        
C           50.94       -55.38      2.3         
C           55.36       -57.66      -4.2        
C           55.02       -58.66      -5.11       
C           53.65       -59.02      -5.38       
C           52.56       -58.51      -4.6        
C           48.15       -55.17      -1.47       
C           48.0        -57.61      -0.69       
C           55.25       -55.38      -1.92       
C           55.38       -57.73      -0.94       
H           53.24       -55.69      0.5         
H           50.18       -57.31      -3.12       
H           56.39       -57.42      -4.02       
H           51.54       -58.88      -4.83       
H           46.99       -55.98      1.76        
H           51.97       -55.5       2.61        
H           47.12       -55.42      -1.91       
H           48.89       -55.11      -2.24       
H           48.05776    -54.21925   -0.94496    
H           47.79       -57.92      -1.72       
H           47.03       -57.39      -0.27       
H           48.49082    -58.42315   -0.15523    
H           55.78       -57.03      -0.11       
H           56.25       -58.26      -1.31       
H           54.72729    -58.49747   -0.52399    
H           55.5        -55.06      -0.88       
H           56.24       -55.39      -2.44       
H           54.54059    -54.65626   -2.32128    
H           47.0        -55.52      4.59        
H           56.93       -59.53      -5.62       
S           50.4        -54.98      5.01        
C           48.0        -55.38      4.4         
C           48.7        -55.14      5.48        
C           56.81       -64.1       -8.68       
C           57.64       -63.43      -7.69       
C           55.58       -63.58      -8.69       
N           58.94       -63.86      -7.39       
N           58.25       -61.66      -6.32       
S           59.5        -62.78      -6.32       
H           54.12       -62.22      -8.2        
H           54.83       -64.1       -9.25       
C           55.16       -62.4       -8.05       
C           57.28       -62.15      -7.08       
C           55.94       -61.63      -7.21       
C           62.24       -77.76      -15.58      
C           62.68       -77.45      -14.3       
S           60.51       -77.38      -15.66      
C           59.8        -73.21      -10.92      
C           59.13       -73.64      -12.13      
C           58.01       -72.96      -12.65      
C           57.73       -71.73      -12.12      
C           58.45       -71.32      -10.97      
C           59.44       -72.04      -10.35      
C           57.04       -70.51      -12.77      
C           57.1        -69.47      -11.63      
C           57.97       -70.01      -10.58      
C           61.0        -74.11      -10.63      
C           61.09       -74.97      -11.9       
C           59.94       -74.76      -12.62      
C           56.67       -68.17      -11.63      
C           56.89       -67.26      -10.57      
C           57.65       -67.85      -9.52       
C           58.28       -69.14      -9.58       
C           61.98       -75.95      -12.36      
C           61.74       -76.68      -13.54      
C           60.51       -76.49      -14.15      
C           59.55       -75.57      -13.72      
C           57.87       -70.07      -13.98      
C           55.55       -70.64      -13.1       
C           62.39       -73.38      -10.42      
C           60.75       -75.0       -9.38       
H           60.02       -71.74      -9.41       
H           57.56       -73.44      -13.49      
H           62.9        -76.13      -11.8       
H           58.62       -75.33      -14.33      
H           56.09       -67.85      -12.42      
H           58.86       -69.41      -8.73       
H           57.17       -69.87      -14.81      
H           58.29       -71.06      -14.17      
H           58.69469    -69.37111   -13.84022   
H           55.09       -70.9       -12.15      
H           55.26       -69.63      -13.48      
H           55.30678    -71.46266   -13.77244   
H           61.56       -75.68      -9.31       
H           59.81       -75.48      -9.6        
H           60.61044    -74.49319   -8.42514    
H           62.45       -72.79      -9.52       
H           63.18       -74.15      -10.23      
H           62.71869    -72.89443   -11.33885   
H           55.88       -65.39      -10.99      
H           63.69       -77.53      -13.88      
S           58.04       -66.62      -8.37       
C           56.5        -65.96      -10.35      
C           57.15       -65.42      -9.25       
C           63.98       -78.95      -19.57      
C           64.81       -78.69      -18.44      
C           62.63       -78.86      -19.29      
N           66.18       -78.7       -18.41      
N           65.33       -78.09      -16.24      
S           66.76       -78.31      -16.94      
H           61.01       -78.29      -18.04      
H           61.9        -79.03      -20.05      
C           62.11       -78.46      -18.03      
C           64.33       -78.4       -17.1       
C           62.86       -78.22      -16.86      
C           65.72       -77.63      -35.83      
C           64.6        -77.45      -35.1       
S           67.15       -78.06      -34.8       
C           64.43       -77.93      -29.13      
C           65.68       -78.32      -29.65      
C           66.7        -78.8       -28.86      
C           66.45       -79.0       -27.53      
C           65.17       -78.7       -27.0       
C           64.09       -78.22      -27.86      
C           67.43       -79.46      -26.47      
C           66.49       -79.45      -25.25      
C           65.2        -79.16      -25.68      
C           63.42       -77.49      -30.18      
C           64.28       -77.66      -31.4       
C           65.61       -78.0       -31.1       
C           66.73       -79.72      -23.92      
C           65.71       -79.47      -22.98      
C           64.42       -79.06      -23.46      
C           64.14       -78.99      -24.79      
C           63.88       -77.42      -32.71      
C           64.82       -77.55      -33.69      
C           66.13       -77.87      -33.41      
C           66.51       -78.18      -32.11      
C           68.01       -80.87      -26.73      
C           68.6        -78.5       -26.12      
C           62.22       -78.54      -30.15      
C           63.0        -76.03      -30.2       
H           63.1        -78.07      -27.5       
H           67.63       -79.13      -29.24      
H           62.9        -77.11      -32.94      
H           67.51       -78.52      -31.95      
H           67.7        -80.05      -23.63      
H           63.22       -78.63      -25.11      
H           68.92       -80.9       -27.3       
H           68.33       -81.19      -25.76      
H           67.297      -81.51098   -27.24854   
H           68.17       -77.56      -25.66      
H           69.25       -78.83      -25.24      
H           69.19165    -78.20418   -26.98634   
H           61.91       -76.02      -30.15      
H           63.37       -75.63      -31.17      
H           63.32347    -75.39744   -29.37336   
H           61.67       -78.38      -29.23      
H           61.53       -78.42      -30.96      
H           62.56157    -79.5647    -30.29639   
H           66.49       -79.64      -20.94      
H           63.6        -77.18      -35.47      
S           63.25       -78.81      -22.19      
C           65.66       -79.45      -21.54      
C           64.45       -79.11      -20.94      
C           66.09       -78.08      -40.16      
C           65.18       -77.21      -39.58      
C           66.91       -78.68      -39.26      
N           64.36       -76.5       -40.38      
N           63.93       -76.22      -37.93      
S           63.38       -75.65      -39.36      
H           67.53       -79.07      -37.33      
H           67.76       -79.27      -39.58      
C           66.85       -78.41      -37.88      
C           64.96       -77.03      -38.19      
C           65.91       -77.61      -37.23      
H           73.27       56.95       13.18       
H           66.16       -78.33      -41.21      
