612

C           23.38       87.97       104.6       
C           23.24       86.78       103.99      
S           24.93       88.1        105.4       
C           27.22       82.14       105.14      
C           27.4        83.37       105.78      
C           28.53       83.59       106.57      
C           29.5        82.53       106.69      
C           29.33       81.3        106.0       
C           28.19       81.12       105.26      
C           30.9        82.75       107.25      
C           31.54       81.38       106.85      
C           30.56       80.51       106.24      
C           25.87       82.2        104.43      
C           25.44       83.71       104.55      
C           26.43       84.34       105.38      
C           32.79       80.91       107.15      
C           33.09       79.54       106.93      
C           32.05       78.69       106.44      
C           30.85       79.17       106.03      
C           24.34       84.42       104.02      
C           24.21       85.8        104.4       
C           25.22       86.43       105.2       
C           26.36       85.72       105.62      
C           31.62       83.97       106.7       
C           30.88       82.74       108.84      
C           25.95       81.83       102.97      
C           24.76       81.38       105.16      
H           28.13       80.22       104.72      
H           28.74       84.59       106.9       
H           23.53       83.9        103.44      
H           27.14       86.22       106.2       
H           33.5        81.62       107.59      
H           30.11       78.53       105.61      
H           31.14       84.88       107.1       
H           32.53       83.85       107.15      
H           31.70405    84.01903    105.61435   
H           30.92       81.74       109.15      
H           31.77       83.02       109.28      
H           30.06903    83.2689     109.34069   
H           23.82       81.61       104.65      
H           24.6        81.73       106.18      
H           24.97361    80.31194    105.20134   
H           26.29       80.76       102.8       
H           24.93       81.9        102.65      
H           26.49722    82.58151    102.40089   
H           35.15       79.33       107.68      
H           22.37       86.5        103.42      
S           32.64       77.05       106.45      
C           34.27       78.85       107.21      
C           34.21       77.52       107.11      
C           20.98       91.6        104.65      
C           20.7        90.59       103.7       
C           22.03       91.33       105.51      
N           19.65       90.61       102.87      
N           21.01       88.45       102.84      
S           19.62       89.07       102.26      
H           23.54       90.05       106.25      
H           22.33       92.02       106.25      
C           22.75       90.11       105.5       
C           21.43       89.31       103.76      
C           22.54       89.15       104.62      
C           14.93       106.72      109.3       
C           15.59       105.85      110.15      
S           15.17       106.22      107.64      
C           17.57       100.26      108.38      
C           17.01       101.11      107.36      
C           17.13       100.69      106.01      
C           17.6        99.46       105.71      
C           18.02       98.57       106.74      
C           18.15       99.02       108.09      
C           17.54       98.67       104.4       
C           18.19       97.31       104.84      
C           18.48       97.28       106.22      
C           17.56       101.06      109.67      
C           16.88       102.36      109.26      
C           16.64       102.45      107.88      
C           18.6        96.22       103.99      
C           19.18       95.08       104.52      
C           19.38       95.07       105.98      
C           18.93       96.12       106.8       
C           16.59       103.48      110.05      
C           16.02       104.61      109.49      
C           15.86       104.65      108.03      
C           16.17       103.57      107.22      
C           16.16       98.53       103.78      
C           18.51       99.35       103.38      
C           16.67       100.13      110.54      
C           18.96       101.34      110.22      
H           18.48       98.37       108.82      
H           17.02       101.45      105.21      
H           16.85       103.58      111.13      
H           16.02       103.56      106.13      
H           18.65       96.36       102.91      
H           19.05       95.98       107.89      
H           15.78       99.45       103.33      
H           16.16       97.76       103.07      
H           15.46396    98.21098    104.55579   
H           19.49       99.37       103.86      
H           18.52       98.69       102.55      
H           18.22904    100.34037   103.02178   
H           19.01       100.65      111.02      
H           19.11       102.43      110.54      
H           19.73441    101.06752   109.50296   
H           16.96       99.08       110.65      
H           16.67       100.53      111.54      
H           15.62204    100.15911   110.24162   
H           19.81       93.63       102.88      
H           15.7        106.02      111.19      
S           20.16       93.52       106.45      
C           19.71       93.81       103.91      
C           20.28       92.89       104.79      
C           13.73       110.85      109.85      
C           12.99       109.97      108.99      
C           14.69       110.19      110.58      
N           12.05       110.38      108.15      
N           12.48       107.97      108.05      
S           11.47       109.06      107.33      
H           15.8        108.44      111.19      
H           15.27       110.77      111.32      
C           14.94       108.79      110.52      
C           13.25       108.63      108.92      
C           14.35       107.97      109.59      
C           12.75       127.31      108.36      
C           12.13       126.53      107.45      
S           13.37       126.43      109.78      
C           12.55       120.42      108.09      
C           12.81       121.22      109.21      
C           13.28       120.58      110.34      
C           13.47       119.16      110.33      
C           13.21       118.39      109.16      
C           12.63       118.99      108.01      
C           14.02       118.31      111.45      
C           14.2        116.97      110.68      
C           13.58       117.02      109.42      
C           12.12       121.33      106.96      
C           12.09       122.74      107.59      
C           12.64       122.6       108.91      
C           14.46       115.76      111.25      
C           14.18       114.59      110.45      
C           13.6        114.73      109.11      
C           13.29       115.97      108.6       
C           11.88       123.95      107.05      
C           12.35       125.09      107.74      
C           12.92       124.89      109.04      
C           13.14       123.68      109.6       
C           15.38       118.78      112.05      
C           12.9        118.07      112.55      
C           13.23       121.22      105.88      
C           10.79       120.99      106.38      
H           12.29       118.4       107.18      
H           13.64       121.15      111.16      
H           11.43       124.01      106.05      
H           13.5        123.57      110.59      
H           14.85       115.67      112.22      
H           12.76       116.15      107.71      
H           15.26       119.78      112.55      
H           15.77       118.2       112.9       
H           16.11647    119.02303   111.28407   
H           12.09       117.61      111.94      
H           13.09       117.29      113.31      
H           12.47148    118.96217   113.00662   
H           10.89       120.19      105.67      
H           10.35       121.91      105.93      
H           10.01199    120.81318   107.12265   
H           13.2        120.28      105.4       
H           13.0        121.99      105.1       
H           14.20797    121.5155    106.25993   
H           14.34       112.89      111.79      
H           11.71       126.88      106.56      
S           13.28       113.17      108.42      
C           14.15       113.17      110.78      
C           13.64       112.33      109.89      
C           13.0        131.65      108.89      
C           11.93       131.11      108.16      
C           13.86       130.73      109.39      
N           10.89       131.79      107.7       
N           10.7        129.34      107.2       
S           9.89        130.74      106.98      
H           14.45       128.67      109.61      
H           14.76       131.0       110.05      
C           13.76       129.29      109.18      
C           11.74       129.65      107.97      
C           12.73       128.71      108.53      
C           11.59       143.5       117.95      
C           12.78       142.84      118.16      
S           11.44       143.79      116.23      
C           15.26       139.58      113.69      
C           14.44       140.7       113.27      
C           13.79       140.76      112.04      
C           13.87       139.62      111.26      
C           14.66       138.51      111.66      
C           15.36       138.45      112.87      
C           13.35       139.24      109.89      
C           13.4        137.75      109.86      
C           14.35       137.33      110.86      
C           15.57       139.69      115.18      
C           14.88       141.01      115.55      
C           14.23       141.57      114.39      
C           12.82       136.76      109.03      
C           13.16       135.41      109.32      
C           14.03       135.13      110.35      
C           14.67       136.04      111.12      
C           14.63       141.52      116.85      
C           13.43       142.33      116.99      
C           12.8        142.79      115.82      
C           13.22       142.48      114.55      
C           11.85       139.65      109.91      
C           14.15       139.77      108.65      
C           14.97       138.65      116.09      
C           17.13       139.81      115.49      
H           15.87       137.56      113.2       
H           13.06       141.59      111.8       
H           15.07       141.06      117.76      
H           12.67       142.9       113.71      
H           12.15       137.02      108.16      
H           15.28       135.74      111.99      
H           11.61       140.64      110.35      
H           11.5        139.67      108.94      
H           11.26271    139.07637   110.62704   
H           14.82       139.1       108.22      
H           13.42       139.87      107.86      
H           14.68711    140.69383   108.86484   
H           17.28       140.04      116.59      
H           17.48       140.68      114.9       
H           17.73023    138.93437   115.24285   
H           15.44       137.72      115.92      
H           15.15       138.82      117.16      
H           13.91461    138.46459   115.89033   
H           11.92       134.21      107.9       
H           13.17       142.58      119.17      
S           14.34       133.44      110.49      
C           12.69       134.22      108.67      
C           13.22       133.08      109.2       
C           8.26        144.39      120.65      
C           9.61        144.24      121.2       
C           8.2         144.47      119.32      
N           9.96        144.41      122.47      
N           11.91       143.94      120.9       
S           11.54       144.21      122.5       
H           8.97        144.22      117.31      
H           7.29        144.64      118.82      
C           9.26        144.29      118.41      
C           10.74       144.08      120.3       
C           10.54       144.02      118.88      
C           -5.69       138.52      126.87      
C           -4.56       137.8       126.91      
S           -5.32       140.14      126.44      
C           0.92        140.36      125.64      
C           -0.26       141.17      125.54      
C           -0.23       142.49      125.07      
C           0.98        142.91      124.53      
C           2.13        142.14      124.71      
C           2.1         140.89      125.32      
C           1.25        144.03      123.55      
C           2.77        143.89      123.24      
C           3.24        142.84      124.04      
C           0.53        138.94      126.05      
C           -1.0        139.0       126.07      
C           -1.36       140.33      125.84      
C           3.5         144.73      122.53      
C           4.87        144.4       122.33      
C           5.41        143.21      122.97      
C           4.59        142.43      123.89      
C           -1.99       138.07      126.28      
C           -3.32       138.47      126.48      
C           -3.64       139.85      126.27      
C           -2.69       140.7       125.86      
C           0.31        143.76      122.4       
C           0.96        145.36      124.24      
C           0.94        137.95      124.93      
C           1.21        138.54      127.41      
H           2.92        140.22      125.32      
H           -1.04       143.2       125.09      
H           -1.75       137.04      126.31      
H           -2.91       141.73      125.72      
H           3.02        145.5       121.94      
H           4.94        141.56      124.45      
H           -0.69       143.95      122.66      
H           0.55        144.43      121.58      
H           0.31732     142.72095   122.07072   
H           -0.11       145.5       124.2       
H           1.46        146.24      123.81      
H           1.25375     145.39497   125.28909   
H           2.34        138.67      127.41      
H           0.98        137.55      127.66      
H           0.79281     139.1442    128.2156    
H           2.07        138.02      124.86      
H           0.79        136.93      125.23      
H           0.62578     138.12853   123.90165   
H           5.77        145.77      120.79      
H           -4.57       136.76      127.2       
S           7.05        142.84      122.59      
C           5.85        144.88      121.4       
C           7.05        144.23      121.52      
C           -9.84       138.02      128.55      
C           -8.84       136.99      128.7       
C           -9.45       139.0       127.73      
N           -9.0        135.79      129.26      
N           -6.71       136.06      128.38      
S           -7.62       134.97      129.14      
H           -7.88       140.06      126.69      
H           -10.17      139.82      127.51      
C           -8.08       139.11      127.27      
C           -7.47       137.11      128.15      
C           -7.04       138.23      127.39      
C           -24.33      139.61      136.46      
C           -23.33      140.52      136.39      
S           -23.81      138.19      135.67      
C           -17.99      139.69      133.36      
C           -18.76      138.54      133.59      
C           -18.39      137.36      133.0       
C           -17.23      137.34      132.3       
C           -16.45      138.43      132.15      
C           -16.8       139.62      132.72      
C           -16.68      136.11      131.46      
C           -15.31      136.72      130.95      
C           -15.27      138.08      131.33      
C           -18.7       140.91      133.99      
C           -19.99      140.29      134.65      
C           -20.02      138.89      134.36      
C           -14.26      136.15      130.3       
C           -13.17      137.03      129.95      
C           -13.25      138.36      130.39      
C           -14.23      138.88      131.18      
C           -20.95      140.92      135.47      
C           -22.14      140.12      135.69      
C           -22.16      138.8       135.29      
C           -21.13      138.15      134.59      
C           -16.41      134.91      132.4       
C           -17.58      135.76      130.27      
C           -17.81      141.52      135.08      
C           -19.03      141.96      132.87      
H           -16.23      140.53      132.42      
H           -19.0       136.49      133.17      
H           -20.95      142.0       135.74      
H           -21.16      137.07      134.36      
H           -14.25      135.07      130.23      
H           -14.13      139.82      131.66      
H           -17.38      134.82      132.97      
H           -16.29      134.02      131.83      
H           -15.52173   134.88798   133.03134   
H           -17.74      136.7       129.7       
H           -16.95      135.15      129.58      
H           -18.54892   135.31065   130.48766   
H           -18.22      142.13      132.29      
H           -19.4       142.96      133.2       
H           -19.79204   141.55076   132.20674   
H           -17.01      142.01      134.6       
H           -18.36      142.33      135.61      
H           -17.42985   140.78735   135.79191   
H           -11.69      135.72      128.86      
H           -23.55      141.52      136.74      
S           -11.93      139.28      129.87      
C           -12.01      136.75      129.16      
C           -11.21      137.87      129.06      
C           -28.49      140.34      138.01      
C           -27.98      139.0       137.78      
C           -27.6       141.3       137.75      
N           -28.69      137.88      138.0       
N           -26.37      137.42      137.12      
S           -27.69      136.64      137.59      
H           -25.58      141.87      137.17      
H           -27.89      142.33      137.95      
C           -26.21      141.02      137.3       
C           -26.64      138.74      137.26      
C           -25.73      139.8       137.01      
C           -42.87      143.99      145.71      
C           -41.99      145.03      145.4       
S           -42.23      142.49      145.02      
C           -36.63      143.94      142.59      
C           -37.4       142.83      142.93      
C           -37.09      141.57      142.48      
C           -35.92      141.37      141.7       
C           -35.1       142.48      141.37      
C           -35.52      143.79      141.78      
C           -35.55      140.13      141.01      
C           -34.15      140.56      140.43      
C           -33.94      141.96      140.67      
C           -37.43      145.19      143.01      
C           -38.57      144.66      143.84      
C           -38.62      143.28      143.59      
C           -33.25      139.81      139.73      
C           -32.08      140.48      139.26      
C           -31.89      141.87      139.47      
C           -32.8       142.64      140.19      
C           -39.67      145.37      144.38      
C           -40.78      144.57      144.78      
C           -40.77      143.21      144.57      
C           -39.73      142.51      143.93      
C           -35.34      138.98      142.06      
C           -36.38      139.73      139.76      
C           -36.57      146.27      143.84      
C           -38.12      145.83      141.73      
H           -34.87      144.68      141.46      
H           -37.84      140.84      142.56      
H           -39.65      146.45      144.47      
H           -39.78      141.46      143.74      
H           -33.36      138.74      139.48      
H           -32.61      143.68      140.34      
H           -36.26      138.78      142.47      
H           -34.95      138.1       141.6       
H           -34.64094   139.2817    142.84      
H           -36.4       140.64      139.1       
H           -35.87      138.93      139.27      
H           -37.44546   139.56395   139.91913   
H           -38.94      146.45      142.08      
H           -38.41      144.99      141.03      
H           -37.48139   146.44755   141.09841   
H           -35.61      146.54      143.32      
H           -37.13      147.23      144.08      
H           -36.24619   145.86171   144.79736   
H           -30.9       138.83      138.4       
H           -42.17      146.06      145.72      
S           -30.33      142.34      138.92      
C           -30.93      139.93      138.55      
C           -29.86      140.7       138.37      
C           -47.08      143.97      146.52      
C           -46.23      143.03      147.16      
C           -46.49      144.94      145.76      
N           -46.58      141.99      147.97      
N           -44.13      142.27      147.68      
S           -45.18      141.31      148.48      
H           -44.73      145.79      144.92      
H           -47.22      145.53      145.24      
C           -45.11      144.98      145.54      
C           -44.82      143.06      146.94      
C           -44.25      144.06      146.05      
C           -63.51      143.28      146.99      
C           -62.9       143.33      145.8       
S           -62.49      142.74      148.31      
C           -56.8       142.93      145.58      
C           -57.41      142.62      146.82      
C           -56.6       142.49      147.96      
C           -55.27      142.84      147.88      
C           -54.72      143.24      146.65      
C           -55.47      143.19      145.45      
C           -54.22      142.8       149.0       
C           -52.99      143.21      148.11      
C           -53.28      143.54      146.75      
C           -57.89      142.78      144.5       
C           -59.19      142.83      145.31      
C           -58.86      142.62      146.69      
C           -51.67      143.14      148.53      
C           -50.68      143.65      147.59      
C           -51.05      143.95      146.24      
C           -52.37      143.9       145.81      
C           -60.48      143.03      144.94      
C           -61.48      143.06      145.93      
C           -61.14      142.73      147.27      
C           -59.85      142.56      147.66      
C           -54.65      143.77      150.19      
C           -54.11      141.29      149.46      
C           -57.89      143.96      143.42      
C           -57.7       141.45      143.72      
H           -55.08      143.47      144.46      
H           -56.92      142.37      149.04      
H           -60.78      143.3       143.91      
H           -59.58      142.34      148.71      
H           -51.35      142.79      149.51      
H           -52.66      144.0       144.75      
H           -55.38      143.21      150.74      
H           -55.07      144.63      149.75      
H           -53.82808   144.1488    150.79751   
H           -54.91      141.12      150.11      
H           -53.2       141.15      149.98      
H           -54.08174   140.54829   148.66178   
H           -57.24      141.66      142.72      
H           -58.65      140.99      143.6       
H           -57.16583   140.69505   144.2969    
H           -56.87      143.97      142.95      
H           -58.54      143.75      142.57      
H           -58.0161    144.89873   143.95942   
H           -48.83      143.55      148.76      
H           -63.41      143.63      144.94      
S           -49.57      144.43      145.39      
C           -49.23      143.79      147.81      
C           -48.51      144.01      146.7       
C           -67.79      144.25      147.04      
C           -66.96      144.59      148.17      
C           -67.16      143.67      145.98      
N           -67.37      145.23      149.32      
N           -64.91      144.53      149.38      
S           -66.04      145.26      150.32      
H           -65.41      142.77      145.26      
H           -67.74      143.29      145.17      
C           -65.82      143.3       146.09      
C           -65.53      144.23      148.26      
C           -64.93      143.57      147.15      
C           -83.82      144.47      143.23      
C           -82.88      143.92      142.46      
S           -83.25      144.72      144.86      
C           -77.21      142.97      144.48      
C           -78.05      143.5       145.48      
C           -77.6       144.06      146.64      
C           -76.2       144.12      146.9       
C           -75.39      143.59      145.87      
C           -75.83      142.99      144.64      
C           -75.37      144.83      148.0       
C           -73.97      144.62      147.46      
C           -73.99      143.92      146.23      
C           -77.89      142.85      143.13      
C           -79.29      143.11      143.54      
C           -79.41      143.5       144.91      
C           -72.78      144.88      148.08      
C           -71.54      144.61      147.46      
C           -71.62      143.93      146.24      
C           -72.82      143.56      145.59      
C           -80.39      143.16      142.65      
C           -81.57      143.76      143.11      
C           -81.61      144.15      144.5       
C           -80.58      144.08      145.4       
C           -75.67      146.32      147.96      
C           -75.45      144.25      149.46      
C           -77.39      143.85      142.06      
C           -77.79      141.37      142.56      
H           -75.13      142.8       143.85      
H           -78.23      144.58      147.34      
H           -80.3       142.82      141.63      
H           -80.66      144.46      146.43      
H           -72.72      145.44      148.97      
H           -72.83      143.07      144.56      
H           -76.73      146.49      148.07      
H           -75.24      146.87      148.78      
H           -75.34565   146.75477   147.01455   
H           -74.94      143.3       149.37      
H           -74.74      144.81      150.21      
H           -76.45837   144.12127   149.85334   
H           -76.83      141.3       142.0       
H           -78.56      141.19      141.83      
H           -77.7616    140.60307   143.33403   
H           -77.98      143.69      141.15      
H           -76.29      143.8       141.85      
H           -77.53119   144.86657   142.42709   
H           -69.87      145.37      148.8       
H           -83.07      143.6       141.45      
S           -70.02      143.58      145.69      
C           -70.16      144.83      147.88      
C           -69.24      144.34      147.02      
C           -87.82      145.87      142.26      
C           -87.32      144.67      141.67      
C           -86.96      146.42      143.11      
N           -88.0       144.02      140.66      
N           -85.74      143.12      141.19      
S           -87.04      142.74      140.25      
H           -85.02      146.38      144.13      
H           -87.24      147.27      143.69      
C           -85.73      145.87      143.47      
C           -86.06      144.13      142.04      
C           -85.25      144.76      142.95      
C           -100.69     155.96      140.34      
C           -99.37      156.24      140.34      
S           -100.91     154.28      140.9       
C           -94.81      152.73      141.66      
C           -96.1       152.09      141.79      
C           -96.21      150.69      142.07      
C           -95.11      149.92      142.12      
C           -93.83      150.52      142.03      
C           -93.72      151.91      141.8       
C           -95.04      148.33      142.25      
C           -93.56      148.22      142.07      
C           -92.87      149.45      141.99      
C           -94.87      154.23      141.36      
C           -96.42      154.31      141.19      
C           -97.12      153.14      141.54      
C           -92.81      147.07      142.05      
C           -91.39      147.11      142.04      
C           -90.78      148.38      141.98      
C           -91.51      149.56      141.86      
C           -97.1       155.41      140.78      
C           -98.5       155.34      140.84      
C           -99.17      154.15      141.13      
C           -98.5       153.06      141.49      
C           -95.69      147.89      143.61      
C           -95.86      147.65      141.08      
C           -94.36      155.02      142.57      
C           -94.24      154.55      139.99      
H           -92.72      152.28      141.6       
H           -97.09      150.14      142.07      
H           -96.71      156.43      140.46      
H           -99.0       152.12      141.68      
H           -93.35      146.17      141.98      
H           -90.86      150.46      141.96      
H           -96.79      147.8       143.5       
H           -95.67      148.6       144.42      
H           -95.22339   147.01168   144.05602   
H           -96.71      148.27      140.85      
H           -96.21      146.67      141.49      
H           -95.26659   147.54276   140.172     
H           -94.7       155.43      139.68      
H           -94.45      153.94      139.16      
H           -93.17757   154.79361   139.99      
H           -93.35      154.68      142.87      
H           -94.35      156.03      142.15      
H           -95.07723   155.01261   143.39075   
H           -90.65      145.02      141.92      
H           -98.99      157.15      139.91      
S           -89.07      148.34      142.02      
C           -90.39      146.07      141.96      
C           -89.07      146.56      142.08      
C           -104.03     158.17      138.54      
C           -102.79     158.79      138.64      
C           -104.12     156.86      138.97      
N           -102.43     159.99      138.2       
N           -100.6      158.84      139.3       
S           -100.87     160.26      138.51      
H           -103.32     155.25      140.08      
H           -105.01     156.25      138.95      
C           -103.06     156.22      139.68      
C           -101.68     158.05      139.24      
C           -101.79     156.74      139.79      
H           34.85       76.84       107.67      
H           -104.9      158.73      138.19      
