612

C           65.96       15.55       40.46       
C           66.24       14.19       40.44       
S           65.73       16.14       42.05       
C           67.46       10.76       45.35       
C           67.22       12.16       45.68       
C           67.51       12.68       46.91       
C           68.19       11.88       47.8        
C           68.39       10.49       47.51       
C           68.01       9.93        46.26       
C           68.89       12.33       49.05       
C           69.28       11.0        49.62       
C           69.01       9.98        48.71       
C           67.35       10.52       43.83       
C           66.85       11.83       43.32       
C           66.76       12.81       44.4        
C           69.87       10.81       50.85       
C           70.1        9.45        51.24       
C           69.94       8.47        50.28       
C           69.33       8.67        49.1        
C           66.62       12.18       41.94       
C           66.22       13.58       41.69       
C           66.11       14.54       42.76       
C           66.47       14.19       44.08       
C           70.1        13.24       48.77       
C           67.89       13.14       49.9        
C           68.65       10.11       43.12       
C           66.35       9.45        43.47       
H           68.33       8.9         46.07       
H           67.34       13.74       47.06       
H           66.78       11.47       41.15       
H           66.45       14.97       44.81       
H           69.99       11.59       51.56       
H           69.1        7.84        48.36       
H           70.45       13.8        49.67       
H           69.82       14.02       48.08       
H           70.98283    12.78093    48.32506    
H           67.51       14.09       49.39       
H           68.5        13.54       50.78       
H           67.07146    12.56843    50.3375     
H           66.62       8.49        43.79       
H           66.03       9.46        42.43       
H           65.44827    9.68952     44.03358    
H           69.01       9.16        43.55       
H           68.51       9.78        42.07       
H           69.41235    10.88646    43.05647    
H           70.93       9.64        53.29       
H           66.48       13.75       39.49       
S           70.44       6.91        51.0        
C           70.68       8.99        52.46       
C           70.94       7.63        52.51       
C           67.01       18.38       37.21       
C           67.88       17.34       37.61       
C           65.78       18.46       37.95       
N           69.13       17.07       37.17       
N           68.49       15.47       38.92       
S           69.7        15.7        37.83       
H           64.63       17.79       39.64       
H           65.11       19.3        37.85       
C           65.47       17.53       39.06       
C           67.46       16.31       38.6        
C           66.27       16.45       39.41       
C           74.24       31.12       30.27       
C           72.95       31.15       30.78       
S           74.72       29.44       30.14       
C           69.6        26.22       31.98       
C           70.91       25.95       31.44       
C           71.32       24.71       31.41       
C           70.51       23.65       31.95       
C           69.26       23.89       32.5        
C           68.7        25.19       32.38       
C           70.93       22.23       32.17       
C           69.73       21.65       32.84       
C           68.76       22.64       33.07       
C           69.35       27.65       32.27       
C           70.7        28.19       31.68       
C           71.54       27.18       31.19       
C           69.55       20.44       33.44       
C           68.57       20.25       34.38       
C           67.62       21.23       34.61       
C           67.66       22.47       33.94       
C           71.05       29.52       31.55       
C           72.28       29.86       31.01       
C           73.12       28.81       30.58       
C           72.77       27.47       30.66       
C           71.24       21.52       30.86       
C           72.0        22.06       33.23       
C           68.12       28.22       31.43       
C           69.15       27.92       33.81       
H           67.74       25.37       32.82       
H           72.37       24.58       31.08       
H           70.36       30.3        31.91       
H           73.38       26.65       30.25       
H           70.27       19.63       33.23       
H           66.91       23.22       34.14       
H           71.71       20.53       31.03       
H           72.11       22.0        30.42       
H           70.39854    21.63507    30.17677    
H           73.0        22.51       32.87       
H           72.2        20.98       33.33       
H           71.75066    22.55156    34.17037    
H           68.11       27.96       34.09       
H           69.61       28.94       33.94       
H           69.78371    27.32271    34.46556    
H           67.22       27.81       31.93       
H           67.82       29.24       31.6        
H           68.18502    27.95271    30.37528    
H           68.99       18.22       35.19       
H           72.5        32.11       31.01       
S           66.51       20.81       35.88       
C           68.4        19.12       35.26       
C           67.37       19.31       36.13       
C           77.19       34.34       29.31       
C           75.81       34.6        29.66       
C           77.48       33.03       29.29       
N           75.32       35.83       29.85       
N           73.66       34.07       30.16       
S           73.69       35.71       30.22       
H           76.83       30.94       29.55       
H           78.46       32.73       28.99       
C           76.51       31.96       29.64       
C           74.89       33.56       29.96       
C           75.17       32.19       29.94       
C           85.35       46.3        21.49       
C           85.74       45.04       21.2        
S           84.44       46.33       22.97       
C           83.46       40.32       24.42       
C           83.31       41.6        24.95       
C           82.36       41.85       25.95       
C           81.59       40.84       26.44       
C           81.88       39.47       26.08       
C           82.89       39.14       25.1        
C           80.56       40.96       27.52       
C           80.29       39.45       27.74       
C           81.06       38.59       26.9        
C           84.17       40.46       23.04       
C           84.67       41.9        23.1        
C           83.95       42.6        24.11       
C           79.41       38.92       28.75       
C           79.26       37.5        28.71       
C           80.03       36.64       27.93       
C           81.01       37.17       27.02       
C           85.24       42.62       22.05       
C           85.17       44.02       22.05       
C           84.47       44.61       23.11       
C           83.87       43.93       24.15       
C           81.31       41.59       28.75       
C           79.24       41.69       27.22       
C           85.45       39.57       22.9        
C           83.24       40.33       21.79       
H           82.93       38.12       24.66       
H           82.18       42.88       26.36       
H           85.62       42.13       21.16       
H           83.43       44.47       24.96       
H           78.75       39.53       29.3        
H           81.67       36.55       26.42       
H           81.61       42.64       28.48       
H           80.59       41.7        29.52       
H           82.14782    41.01749    29.14797    
H           78.32       41.13       26.98       
H           78.87       42.22       28.1        
H           79.33826    42.51817    26.51816    
H           83.84       40.12       20.93       
H           82.69       41.29       21.7        
H           82.57253    39.46875    21.81871    
H           84.98       38.57       22.82       
H           85.94       39.83       21.95       
H           86.16495    39.71004    23.71076    
H           77.45       37.19       29.96       
H           86.34       44.85       20.3        
S           79.49       34.95       27.98       
C           78.24       36.73       29.39       
C           78.25       35.39       29.12       
C           85.28       50.03       19.21       
C           85.55       48.82       18.51       
C           85.22       49.95       20.52       
N           85.66       48.6        17.19       
N           85.86       46.52       18.46       
S           85.89       47.03       16.88       
H           85.41       48.94       22.38       
H           84.96       50.81       21.09       
C           85.43       48.79       21.27       
C           85.69       47.58       19.3        
C           85.47       47.52       20.7        
C           74.2        60.4        12.58       
C           74.01       59.68       13.71       
S           75.84       60.21       12.06       
C           78.42       56.31       16.3        
C           78.72       56.87       15.06       
C           79.98       56.74       14.48       
C           80.88       55.92       15.07       
C           80.54       55.3        16.3        
C           79.36       55.49       16.95       
C           82.25       55.38       14.54       
C           82.58       54.42       15.73       
C           81.66       54.48       16.78       
C           77.0        56.58       16.79       
C           76.5        57.51       15.61       
C           77.57       57.61       14.65       
C           83.66       53.55       15.9        
C           83.71       52.66       17.04       
C           82.81       52.9        18.12       
C           81.71       53.73       17.97       
C           75.21       58.06       15.31       
C           75.17       58.99       14.22       
C           76.27       59.08       13.36       
C           77.45       58.38       13.47       
C           82.01       54.73       13.19       
C           83.38       56.45       14.37       
C           76.26       55.25       16.98       
C           77.07       57.28       18.16       
H           79.24       55.11       17.98       
H           80.29       57.32       13.59       
H           74.39       58.06       16.02       
H           78.24       58.54       12.77       
H           84.35       53.4        15.08       
H           80.87       53.7        18.71       
H           81.7        55.47       12.38       
H           82.92       54.35       12.88       
H           81.37627    53.84421    13.23321    
H           83.59       56.8        15.36       
H           84.39       55.99       14.14       
H           83.20705    57.28015    13.68513    
H           77.25       56.66       18.95       
H           77.79       58.11       18.09       
H           76.19204    57.86059    18.44321    
H           75.26       55.5        17.4        
H           76.79       54.6        17.68       
H           76.2889     54.5997     16.10571    
H           85.48       51.56       16.54       
H           73.04       59.6        14.21       
S           83.35       51.95       19.48       
C           84.76       51.76       17.36       
C           84.72       51.24       18.6        
C           71.48       62.41       9.9         
C           71.25       61.09       10.37       
C           72.62       62.96       10.31       
N           70.37       60.23       9.78        
N           71.72       59.15       11.53       
S           70.53       58.78       10.54       
H           74.45       62.81       11.45       
H           72.89       63.92       9.92        
C           73.5        62.26       11.19       
C           72.05       60.45       11.36       
C           73.28       61.07       11.69       
C           59.64       71.59       4.21        
C           60.74       72.28       4.56        
S           59.93       70.04       3.46        
C           65.87       69.33       5.35        
C           64.92       68.67       4.63        
C           64.98       67.32       4.51        
C           65.93       66.64       5.24        
C           66.96       67.25       5.89        
C           66.93       68.62       5.99        
C           65.79       65.23       5.72        
C           67.09       64.99       6.38        
C           67.74       66.24       6.61        
C           65.26       70.65       5.83        
C           64.09       70.82       4.87        
C           63.76       69.55       4.36        
C           67.7        63.82       6.78        
C           68.81       63.89       7.67        
C           69.38       65.14       7.98        
C           68.85       66.32       7.44        
C           63.16       71.84       4.8         
C           61.93       71.5        4.31        
C           61.61       70.23       3.77        
C           62.55       69.27       3.76        
C           64.45       65.07       6.56        
C           65.65       64.28       4.49        
C           64.73       70.6        7.35        
C           66.21       71.85       5.61        
H           67.74       69.19       6.56        
H           64.19       66.68       4.13        
H           63.31       72.85       5.21        
H           62.21       68.31       3.5         
H           67.29       62.88       6.53        
H           69.41       67.26       7.69        
H           63.57       64.68       5.89        
H           64.21       66.08       6.89        
H           64.61738    64.54693    7.50153     
H           64.68       64.42       4.08        
H           65.66       63.23       4.85        
H           66.40638    64.43128    3.71987     
H           65.62       72.75       5.75        
H           66.4        71.94       4.54        
H           67.15606    71.87845    6.15061     
H           65.65       70.37       7.91        
H           64.28       71.44       7.63        
H           64.123      69.70778    7.50358     
H           68.98       61.91       8.41        
H           60.8        73.27       4.97        
S           70.8        64.91       9.01        
C           69.45       62.84       8.47        
C           70.57       63.22       9.09        
C           55.73       72.19       6.24        
C           55.82       71.52       4.99        
C           56.93       72.63       6.72        
N           54.83       70.8        4.42        
N           56.99       70.68       3.21        
S           55.52       70.09       3.11        
H           59.01       72.87       6.43        
H           57.0        73.08       7.72        
C           58.13       72.56       5.92        
C           57.05       71.4        4.23        
C           58.3        71.98       4.71        
C           44.14       68.72       17.58       
C           45.36       69.2        17.96       
S           43.88       68.82       15.85       
C           49.3        71.04       13.69       
C           48.15       70.44       13.23       
C           47.98       70.13       11.87       
C           49.04       70.48       11.01       
C           50.21       71.08       11.47       
C           50.38       71.31       12.83       
C           49.06       70.21       9.53        
C           50.39       70.9        9.1         
C           51.08       71.28       10.3        
C           49.37       71.1        15.25       
C           47.95       70.54       15.57       
C           47.27       70.2        14.36       
C           51.0        71.16       7.88        
C           52.33       71.6        7.83        
C           52.95       72.01       9.06        
C           52.37       71.81       10.34       
C           47.37       70.22       16.72       
C           46.17       69.52       16.77       
C           45.45       69.37       15.52       
C           46.0        69.8        14.33       
C           48.96       68.67       9.1         
C           47.96       71.07       8.85        
C           50.48       70.11       15.73       
C           49.6        72.52       15.82       
H           51.29       71.78       13.19       
H           47.08       69.53       11.52       
H           47.8        70.51       17.66       
H           45.49       69.59       13.37       
H           50.54       71.06       6.96        
H           52.91       72.06       11.24       
H           48.45       68.6        8.13        
H           48.3        68.03       9.77        
H           49.96352    68.24598    9.06466     
H           48.12       72.11       9.22        
H           48.0        70.94       7.75        
H           46.92757    70.77807    9.04225     
H           50.61       72.92       15.45       
H           48.86       73.13       15.31       
H           49.56451    72.60518    16.90609    
H           51.34       70.11       15.16       
H           50.78       70.39       16.74       
H           50.19639    69.05765    15.71507    
H           52.79       71.82       5.76        
H           45.77       69.3        18.99       
S           54.64       72.65       8.7         
C           53.19       71.91       6.74        
C           54.47       72.23       7.04        
C           41.06       66.39       19.73       
C           41.99       67.23       20.41       
C           41.02       66.54       18.35       
N           42.13       67.07       21.72       
N           44.04       68.33       20.5        
S           43.53       67.85       22.01       
H           41.99       67.37       16.61       
H           40.33       65.98       17.75       
C           41.99       67.36       17.66       
C           43.04       67.88       19.72       
C           43.06       68.05       18.32       
C           29.15       56.03       21.31       
C           30.22       55.86       20.5        
S           29.67       56.82       22.82       
C           35.45       58.54       21.09       
C           34.57       58.7        22.13       
C           34.64       59.8        23.04       
C           35.58       60.84       22.76       
C           36.38       60.71       21.59       
C           36.38       59.51       20.81       
C           35.82       62.23       23.38       
C           36.92       62.77       22.48       
C           37.27       61.85       21.51       
C           35.02       57.36       20.25       
C           33.66       57.0        20.81       
C           33.49       57.73       21.98       
C           37.5        64.02       22.48       
C           38.54       64.28       21.52       
C           38.83       63.32       20.55       
C           38.2        62.11       20.53       
C           32.67       56.23       20.29       
C           31.49       56.25       20.95       
C           31.3        56.94       22.14       
C           32.32       57.7        22.73       
C           34.53       63.16       23.22       
C           36.35       62.14       24.82       
C           34.9        57.92       18.78       
C           35.92       56.07       20.31       
H           37.1        59.33       20.01       
H           33.87       59.91       23.86       
H           32.76       55.67       19.37       
H           32.22       58.11       23.69       
H           37.15       64.77       23.18       
H           38.49       61.35       19.86       
H           33.76       62.78       23.88       
H           34.75       64.24       23.25       
H           34.14915    63.11688    22.19961    
H           37.39       61.8        24.6        
H           36.44       63.13       25.23       
H           35.85659    61.44923    25.50372    
H           35.6        55.47       19.46       
H           35.69       55.59       21.31       
H           36.9941     56.25494    20.32423    
H           35.9        58.29       18.42       
H           34.76       57.05       18.12       
H           34.16133    58.7139     18.66955    
H           39.14       66.32       21.95       
H           29.98       55.28       19.58       
S           39.99       63.89       19.38       
C           39.24       65.47       21.32       
C           40.09       65.46       20.26       
C           24.89       56.74       20.89       
C           25.43       56.04       21.97       
C           25.82       57.17       19.99       
N           24.76       55.68       23.07       
N           27.17       55.18       23.31       
S           25.79       55.01       24.17       
H           27.78       57.04       19.19       
H           25.55       57.72       19.13       
C           27.19       56.81       20.09       
C           26.84       55.73       22.13       
C           27.74       56.02       21.09       
C           10.14       64.11       19.79       
C           11.07       64.4        18.85       
S           10.79       63.22       21.18       
C           16.47       61.51       18.89       
C           15.59       61.21       19.88       
C           15.75       60.12       20.71       
C           16.97       59.43       20.65       
C           17.91       59.88       19.74       
C           17.65       60.86       18.79       
C           17.49       58.29       21.51       
C           18.89       58.29       21.05       
C           19.08       59.1        19.93       
C           15.85       62.67       17.97       
C           14.44       62.86       18.61       
C           14.36       62.03       19.77       
C           19.88       57.47       21.56       
C           21.19       57.55       21.05       
C           21.37       58.34       19.89       
C           20.33       59.19       19.45       
C           13.43       63.65       18.26       
C           12.28       63.71       19.1        
C           12.23       62.93       20.29       
C           13.25       62.12       20.65       
C           17.42       58.65       23.02       
C           16.98       56.9        21.18       
C           16.85       63.82       18.16       
C           15.78       62.1        16.57       
H           18.51       61.23       18.18       
H           14.93       59.71       21.36       
H           13.42       64.2        17.31       
H           13.19       61.58       21.61       
H           19.69       56.86       22.39       
H           20.5        59.87       18.62       
H           17.67       57.71       23.56       
H           16.4        58.82       23.4        
H           18.05297    59.48437    23.3221     
H           17.26       56.63       20.22       
H           17.35       56.17       21.89       
H           15.89043    56.87259    21.19371    
H           16.75       61.75       16.22       
H           15.1        61.23       16.56       
H           15.4982     62.82255    15.8041     
H           17.48       63.71       17.31       
H           17.52       63.5        18.9        
H           16.44853    64.83083    18.23169    
H           22.39       56.14       22.23       
H           10.93       64.93       17.87       
S           23.06       58.21       19.4        
C           22.41       56.88       21.45       
C           23.49       57.19       20.72       
C           5.99        65.55       19.7        
C           6.27        64.29       20.37       
C           7.06        66.26       19.24       
N           5.38        63.32       20.6        
N           7.73        62.47       20.7        
S           6.19        61.95       21.11       
H           9.21        66.46       19.0        
H           6.86        67.3        18.95       
C           8.43        65.83       19.4        
C           7.65        63.75       20.29       
C           8.77        64.58       19.85       
C           -8.21       69.58       12.33       
C           -7.1        70.36       12.12       
S           -7.78       68.04       13.03       
C           -1.66       68.61       14.39       
C           -2.67       67.64       14.53       
C           -2.56       66.53       15.29       
C           -1.41       66.44       16.06       
C           -0.41       67.43       16.0        
C           -0.51       68.53       15.18       
C           -0.89       65.25       16.86       
C           0.14        65.95       17.72       
C           0.6         67.11       17.04       
C           -2.01       69.62       13.29       
C           -3.53       69.38       13.15       
C           -3.79       68.15       13.81       
C           0.95        65.45       18.78       
C           2.25        65.84       18.86       
C           2.62        67.01       18.14       
C           1.78        67.75       17.3        
C           -4.5        70.06       12.37       
C           -5.85       69.63       12.43       
C           -6.05       68.37       13.03       
C           -5.09       67.58       13.69       
C           -1.94       64.54       17.75       
C           -0.11       64.26       15.98       
C           -1.82       71.1        13.83       
C           -1.21       69.22       12.03       
H           0.24        69.26       15.2        
H           -3.36       65.8        15.38       
H           -4.25       70.94       11.77       
H           -5.39       66.73       14.25       
H           0.72        64.48       19.15       
H           2.1         68.57       16.69       
H           -2.72       64.03       17.17       
H           -1.38       63.81       18.25       
H           -2.39491    65.26785    18.42186    
H           0.4         64.8        15.18       
H           0.65        63.71       16.59       
H           -0.66072    63.40889    15.57948    
H           -1.86       69.63       11.22       
H           -1.16       68.13       11.95       
H           -0.29307    69.78795    11.87262    
H           -0.78       71.36       14.02       
H           -2.13       71.83       13.12       
H           -2.41514    71.25587    14.72979    
H           3.22        64.48       20.25       
H           -7.09       71.41       11.78       
S           4.35        67.29       18.2        
C           3.36        65.33       19.61       
C           4.6         65.93       19.32       
C           -12.31      70.69       13.51       
C           -12.01      69.47       12.88       
C           -11.27      71.54       13.57       
N           -12.92      68.52       12.57       
N           -10.71      67.99       11.63       
S           -12.19      67.36       11.72       
H           -9.24       71.91       13.42       
H           -11.43      72.52       14.04       
C           -9.98       71.18       13.18       
C           -10.7       69.12       12.31       
C           -9.61       70.0        12.53       
C           -27.81      73.32       19.27       
C           -27.29      72.16       18.75       
S           -26.62      74.56       18.94       
C           -21.59      71.1        17.12       
C           -21.89      72.47       17.25       
C           -21.01      73.53       16.99       
C           -19.73      73.19       16.7        
C           -19.32      71.84       16.58       
C           -20.28      70.8        16.83       
C           -18.57      74.08       16.11       
C           -17.54      73.09       15.77       
C           -17.94      71.76       16.07       
C           -22.79      70.17       17.26       
C           -23.87      71.26       17.54       
C           -23.28      72.56       17.69       
C           -16.27      73.29       15.29       
C           -15.4       72.23       15.03       
C           -15.85      70.88       15.29       
C           -17.21      70.71       15.67       
C           -25.1       71.03       17.86       
C           -25.93      72.16       18.31       
C           -25.35      73.49       18.38       
C           -24.04      73.72       18.08       
C           -19.18      74.81       14.96       
C           -18.11      75.04       17.25       
C           -23.17      69.43       15.94       
C           -22.69      69.18       18.49       
H           -19.95      69.77       16.82       
H           -21.26      74.58       17.26       
H           -25.58      70.08       18.05       
H           -23.57      74.69       18.2        
H           -15.93      74.31       15.22       
H           -17.56      69.7        15.94       
H           -19.94      75.49       15.28       
H           -19.64      74.12       14.31       
H           -18.43311   75.27947    14.31981    
H           -18.78      75.96       17.17       
H           -17.13      75.39       17.0        
H           -18.21565   74.60332    18.2431     
H           -23.66      68.64       18.69       
H           -22.39      69.73       19.36       
H           -21.98965   68.35939    18.33437    
H           -22.37      68.73       15.77       
H           -24.15      68.89       16.04       
H           -23.21951   70.04538    15.04169    
H           -13.63      73.21       14.18       
H           -27.88      71.27       18.7        
S           -14.68      69.7        14.72       
C           -14.11      72.28       14.52       
C           -13.59      71.02       14.26       
C           -31.8       74.98       20.3        
C           -31.63      73.62       20.0        
C           -30.67      75.7        20.12       
N           -32.58      72.69       20.23       
N           -30.29      71.7        19.64       
S           -31.83      71.25       20.05       
H           -28.7       75.92       19.75       
H           -30.64      76.76       20.45       
C           -29.43      75.15       19.81       
C           -30.32      73.03       19.71       
C           -29.11      73.84       19.67       
H           71.12       7.0         53.4        
H           -32.8       75.5        20.28       
