612

C           93.28       91.57       48.45       
C           94.6        91.14       48.52       
S           92.37       91.14       49.86       
C           96.41       88.46       53.76       
C           95.09       88.81       53.65       
C           94.22       88.61       54.8        
C           94.76       88.14       55.97       
C           96.14       87.79       56.07       
C           96.96       87.94       54.92       
C           94.02       87.58       57.17       
C           95.18       87.17       58.09       
C           96.39       87.32       57.4        
C           97.19       88.78       52.49       
C           96.07       89.44       51.67       
C           94.82       89.32       52.37       
C           95.16       86.75       59.43       
C           96.39       86.51       60.12       
C           97.55       86.61       59.31       
C           97.61       87.1        57.99       
C           96.0        89.93       50.41       
C           94.82       90.45       49.83       
C           93.65       90.32       50.6        
C           93.65       89.76       51.87       
C           93.08       88.68       57.83       
C           93.13       86.41       56.74       
C           98.31       89.78       52.81       
C           97.78       87.52       51.88       
H           97.98       87.61       54.96       
H           93.12       88.84       54.74       
H           96.88       89.94       49.75       
H           92.7        89.64       52.43       
H           94.23       86.53       59.96       
H           98.51       87.18       57.4        
H           92.43       88.04       58.46       
H           92.34       88.94       57.1        
H           93.56742    89.45114    58.42654    
H           92.25       86.8        56.22       
H           92.78       85.95       57.68       
H           93.60273    85.62682    56.14733    
H           98.83       87.39       52.18       
H           97.73       87.52       50.82       
H           97.22825    86.62249    52.15955    
H           99.19       89.37       53.32       
H           98.73       90.21       51.87       
H           97.94036    90.64481    53.36097    
H           95.84       85.55       62.03       
H           95.35       91.44       47.83       
S           98.91       86.17       60.31       
C           96.66       85.83       61.36       
C           97.93       85.7        61.66       
C           91.31       94.1        45.38       
C           92.54       93.39       45.17       
C           90.86       93.91       46.67       
N           93.28       93.44       44.02       
N           94.33       91.95       45.68       
S           94.7        92.54       44.2        
H           90.88       92.92       48.59       
H           89.94       94.38       46.96       
C           91.45       93.04       47.65       
C           93.17       92.52       46.15       
C           92.6        92.31       47.43       
C           86.18       105.7       35.03       
C           85.62       105.61      36.24       
S           87.38       104.5       34.86       
C           86.55       100.94      40.07       
C           87.21       100.93      38.82       
C           88.06       99.87       38.43       
C           88.36       98.91       39.34       
C           87.75       98.88       40.59       
C           86.86       99.94       41.01       
C           89.38       97.84       39.23       
C           89.38       97.2        40.61       
C           88.33       97.74       41.38       
C           85.76       102.21      40.22       
C           86.02       102.86      38.85       
C           86.92       102.13      38.07       
C           90.15       96.2        41.08       
C           89.96       95.87       42.43       
C           89.07       96.5        43.26       
C           88.18       97.47       42.75       
C           85.52       104.02      38.32       
C           85.93       104.43      37.03       
C           86.91       103.66      36.3        
C           87.39       102.46      36.84       
C           88.79       96.88       38.05       
C           90.82       98.44       38.9        
C           84.27       101.93      40.34       
C           86.34       103.21      41.31       
H           86.46       99.9        42.05       
H           88.54       99.93       37.49       
H           84.95       104.72      38.9        
H           88.16       101.81      36.42       
H           90.92       95.79       40.5        
H           87.5        98.07       43.31       
H           88.92       97.35       37.06       
H           87.73       96.77       38.2        
H           89.28899    95.91095    38.05723    
H           90.68       98.99       37.99       
H           91.57       97.63       38.78       
H           91.1179     99.19892    39.62346    
H           86.04       104.29      41.08       
H           87.43       103.15      41.32       
H           85.96796    103.03113   42.31881    
H           84.0        101.28      41.23       
H           83.73       102.85      40.41       
H           83.82501    101.33182   39.54485    
H           91.55       94.31       42.6        
H           84.81       106.32      36.45       
S           89.28       96.0        44.96       
C           90.74       94.92       43.11       
C           90.52       94.91       44.47       
C           85.09       108.46      31.72       
C           86.4        108.27      32.12       
C           84.18       107.71      32.43       
N           87.49       108.73      31.45       
N           88.11       107.12      33.27       
S           88.83       108.13      32.18       
H           83.77       106.25      33.9        
H           83.18       107.84      32.29       
C           84.56       106.87      33.5        
C           86.82       107.33      33.14       
C           85.82       106.69      33.97       
C           79.14       118.0       19.36       
C           80.52       117.78      19.51       
S           78.3        117.24      20.75       
C           83.15       114.26      23.73       
C           81.77       114.23      23.63       
C           80.89       113.46      24.46       
C           81.53       112.63      25.36       
C           82.94       112.74      25.56       
C           83.76       113.5       24.69       
C           80.94       111.56      26.29       
C           82.14       111.34      27.22       
C           83.3        111.85      26.71       
C           83.7        115.24      22.64       
C           82.43       115.74      21.98       
C           81.31       115.21      22.64       
C           82.03       110.61      28.41       
C           83.23       110.23      29.01       
C           84.46       110.71      28.46       
C           84.55       111.47      27.33       
C           82.22       116.65      20.98       
C           80.87       116.97      20.62       
C           79.81       116.57      21.36       
C           80.03       115.64      22.37       
C           79.82       112.13      27.16       
C           80.58       110.23      25.6        
C           84.43       116.45      23.24       
C           84.51       114.47      21.59       
H           84.84       113.41      24.77       
H           79.86       113.68      24.54       
H           83.16       117.03      20.54       
H           79.18       115.34      23.03       
H           81.12       110.13      28.71       
H           85.52       111.88      27.05       
H           78.85       112.48      26.75       
H           79.4        111.34      27.8        
H           80.19689    112.99343   27.70821    
H           81.4        109.68      25.22       
H           80.18       109.61      26.35       
H           79.78047    110.3767    24.87382    
H           84.99       113.58      22.0        
H           85.25       115.08      21.11       
H           83.86536    113.97465   20.86394    
H           85.42       116.1       23.46       
H           84.32       117.26      22.47       
H           83.93285    116.81026   24.14064    
H           82.55       109.21      30.81       
H           81.26       118.33      18.95       
S           85.83       110.24      29.5        
C           83.39       109.53      30.2        
C           84.72       109.33      30.57       
C           76.49       119.41      16.21       
C           77.74       118.82      15.89       
C           76.26       119.5       17.51       
N           78.11       118.36      14.75       
N           79.9        117.83      16.46       
S           79.6        117.74      14.84       
H           76.7        119.02      19.54       
H           75.34       119.96      17.87       
C           77.12       119.06      18.55       
C           78.75       118.46      16.94       
C           78.38       118.58      18.34       
C           67.55       130.97      10.53       
C           68.78       130.69      10.03       
S           66.74       129.5       11.04       
C           71.51       125.36      10.54       
C           70.16       125.38      10.87       
C           69.56       124.28      11.48       
C           70.41       123.37      12.11       
C           71.75       123.43      11.8        
C           72.33       124.35      10.96       
C           70.18       122.46      13.31       
C           71.59       121.89      13.53       
C           72.51       122.47      12.62       
C           71.93       126.66      9.94        
C           70.62       127.47      9.96        
C           69.53       126.67      10.55       
C           72.07       120.96      14.51       
C           73.47       120.72      14.5        
C           74.3        121.33      13.53       
C           73.88       122.2       12.59       
C           70.3        128.76      9.55        
C           69.12       129.29      9.98        
C           68.13       128.51      10.67       
C           68.27       127.13      10.9        
C           69.73       123.26      14.6        
C           69.32       121.18      13.06       
C           73.0        127.36      10.88       
C           72.53       126.37      8.53        
H           73.44       124.51      10.85       
H           68.51       124.27      11.75       
H           71.1        129.45      9.26        
H           67.48       126.49      11.37       
H           71.45       120.38      15.24       
H           74.51       122.82      11.92       
H           68.77       123.86      14.4        
H           69.36       122.57      15.35       
H           70.50622    123.9356    14.95936    
H           69.5        120.93      12.03       
H           69.64       120.3       13.65       
H           68.25092    121.3924    13.05292    
H           73.47       125.84      8.69        
H           72.0        125.56      8.05        
H           72.60597    127.22644   7.86004     
H           73.22       128.36      10.51       
H           73.96       126.76      10.86       
H           72.7102     127.38174   11.93054    
H           73.65       119.52      16.37       
H           69.45       131.5       9.71        
S           75.95       120.73      13.8        
C           74.14       120.02      15.54       
C           75.42       119.91      15.31       
C           65.17       134.73      10.92       
C           66.58       134.78      10.63       
C           64.75       133.52      11.36       
N           67.21       135.91      10.36       
N           68.61       133.86      10.14       
S           68.78       135.52      10.12       
H           65.08       131.37      11.46       
H           63.79       133.44      11.66       
C           65.54       132.32      11.19       
C           67.37       133.55      10.54       
C           66.87       132.27      10.8        
C           53.34       144.83      5.4         
C           54.68       145.07      5.15        
S           53.17       143.26      6.17        
C           59.14       141.69      7.47        
C           57.81       141.23      7.68        
C           57.64       140.03      8.41        
C           58.73       139.37      8.92        
C           60.03       139.98      8.82        
C           60.25       141.12      8.05        
C           58.74       138.22      9.94        
C           60.23       138.06      10.17       
C           60.96       139.06      9.45        
C           59.08       143.12      6.91        
C           57.62       143.2       6.56        
C           56.9        142.05      7.05        
C           60.8        137.0       10.77       
C           62.27       136.94      10.78       
C           62.99       137.94      10.05       
C           62.34       139.04      9.43        
C           57.0        144.19      5.9         
C           55.59       144.1       5.75        
C           54.86       143.03      6.31        
C           55.53       142.05      7.14        
C           57.99       138.82      11.14       
C           58.04       136.98      9.29        
C           59.46       144.29      7.95        
C           59.83       143.15      5.6         
H           61.23       141.45      7.78        
H           56.7        139.55      8.57        
H           57.58       144.97      5.39        
H           55.01       141.4       7.78        
H           60.18       136.22      11.16       
H           62.94       139.69      8.77        
H           56.94       139.01      10.97       
H           58.4        139.86      11.36       
H           58.13311    138.18317   12.01296    
H           57.01       137.29      9.19        
H           57.96       136.1       9.89        
H           58.44819    136.75479   8.30472     
H           59.16       143.38      4.74        
H           60.34       142.2       5.5         
H           60.66419    143.84393   5.49665     
H           60.46       144.46      8.29        
H           59.35       145.19      7.34        
H           58.87328    144.34867   8.86674     
H           62.58       134.9       11.72       
H           55.01       145.93      4.71        
S           64.67       137.51      10.16       
C           62.98       135.85      11.29       
C           64.25       135.87      10.77       
C           50.5        148.08      5.92        
C           51.21       148.0       4.69        
C           50.58       147.0       6.74        
N           51.3        148.9       3.7         
N           52.85       146.96      3.34        
S           52.48       148.36      2.62        
H           51.46       145.17      7.2         
H           50.08       147.0       7.68        
C           51.42       145.9       6.45        
C           52.11       146.86      4.45        
C           52.21       145.8       5.38        
C           50.56       162.6       13.28       
C           51.08       161.41      13.72       
S           49.78       162.28      11.75       
C           50.08       156.05      11.24       
C           49.58       157.14      10.58       
C           48.97       157.07      9.27        
C           48.9        155.86      8.59        
C           49.25       154.7       9.39        
C           49.83       154.79      10.71       
C           48.4        155.41      7.21        
C           48.65       153.89      7.34        
C           49.12       153.51      8.58        
C           50.84       156.38      12.5        
C           50.64       157.91      12.51       
C           49.86       158.35      11.38       
C           48.69       152.99      6.31        
C           49.07       151.6       6.6         
C           49.37       151.27      7.94        
C           49.38       152.22      8.99        
C           51.09       158.9       13.41       
C           50.64       160.23      13.09       
C           49.91       160.53      11.93       
C           49.49       159.6       11.13       
C           46.93       155.88      6.94        
C           49.45       155.9       6.17        
C           50.24       155.73      13.81       
C           52.24       155.9       12.12       
H           50.09       153.87      11.34       
H           48.55       157.97      8.78        
H           51.6        158.74      14.31       
H           48.86       159.82      10.29       
H           48.53       153.26      5.27        
H           49.73       152.02      9.98        
H           46.84       156.95      6.79        
H           46.39       155.82      7.86        
H           46.3533     155.2959    6.22282     
H           50.42       155.55      6.54        
H           49.26       155.39      5.12        
H           49.58827    156.97705   6.07539     
H           52.27       154.78      12.31       
H           52.46       156.04      11.06       
H           53.05897    156.3023    12.71627    
H           50.2        154.61      13.67       
H           51.01       155.88      14.57       
H           49.25605    156.0891    14.11165    
H           49.29       150.55      4.73        
H           51.83       161.45      14.54       
S           49.86       149.6       8.12        
C           49.41       150.48      5.74        
C           49.88       149.36      6.4         
C           50.46       166.77      14.53       
C           51.66       165.91      14.74       
C           49.46       166.16      13.82       
N           52.78       166.39      15.31       
N           52.99       164.05      14.59       
S           53.86       165.13      15.45       
H           48.66       164.41      12.84       
H           48.57       166.69      13.7        
C           49.57       164.77      13.4        
C           51.8        164.57      14.36       
C           50.62       163.98      13.73       
C           40.88       177.62      22.35       
C           41.46       176.5       22.94       
S           41.44       177.92      20.76       
C           46.14       173.69      20.32       
C           45.43       174.51      19.45       
C           45.7        174.51      18.05       
C           46.71       173.67      17.56       
C           47.44       172.77      18.4        
C           47.17       172.84      19.78       
C           47.17       173.46      16.14       
C           47.88       172.11      16.18       
C           48.2        171.75      17.56       
C           45.61       173.86      21.76       
C           44.5        174.83      21.6        
C           44.45       175.28      20.23       
C           48.36       171.3       15.16       
C           49.04       170.09      15.48       
C           49.34       169.85      16.82       
C           48.93       170.59      17.9        
C           43.62       175.14      22.57       
C           42.62       176.02      22.22       
C           42.62       176.63      20.91       
C           43.5        176.22      19.86       
C           46.07       173.36      15.12       
C           48.21       174.48      15.69       
C           45.22       172.44      22.14       
C           46.77       174.41      22.64       
H           47.71       172.14      20.41       
H           45.14       175.18      17.4        
H           43.62       174.61      23.56       
H           43.29       176.55      18.83       
H           48.09       171.43      14.12       
H           49.19       170.24      18.93       
H           45.54       174.34      15.02       
H           46.48       173.12      14.16       
H           45.40071    172.51983   15.30512    
H           48.86       174.65      16.53       
H           48.84       174.09      14.92       
H           47.80689    175.47717   15.5132     
H           47.7        173.83      22.49       
H           46.48       174.37      23.72       
H           47.05169    175.43564   22.40165    
H           46.0        171.76      22.16       
H           44.81       172.38      23.13       
H           44.44554    172.0423    21.48415    
H           49.06       169.08      13.49       
H           41.23       176.27      23.93       
S           50.13       168.3       16.89       
C           49.42       169.08      14.55       
C           50.13       168.07      15.13       
C           37.64       179.7       24.51       
C           37.5        178.42      24.08       
C           38.87       180.24      24.19       
N           36.44       177.6       24.26       
N           38.16       176.57      22.73       
S           36.68       176.23      23.38       
H           40.77       180.03      23.22       
H           39.09       181.19      24.68       
C           39.84       179.6       23.35       
C           38.49       177.75      23.24       
C           39.71       178.37      22.84       
C           29.36       188.34      36.01       
C           30.15       188.96      35.06       
S           29.23       186.61      35.69       
C           32.66       185.85      30.46       
C           32.05       185.05      31.44       
C           31.94       183.65      31.25       
C           32.61       183.06      30.21       
C           33.34       183.85      29.32       
C           33.38       185.22      29.42       
C           32.95       181.53      30.07       
C           33.85       181.61      28.85       
C           34.15       182.93      28.47       
C           32.76       187.32      30.87       
C           31.87       187.36      32.06       
C           31.42       186.02      32.36       
C           34.4        180.51      28.23       
C           35.3        180.81      27.18       
C           35.6        182.16      26.86       
C           35.07       183.24      27.54       
C           31.38       188.34      32.9        
C           30.6        188.09      33.99       
C           30.11       186.79      34.22       
C           30.47       185.72      33.4        
C           33.52       180.88      31.37       
C           31.63       180.82      29.65       
C           34.25       187.46      31.14       
C           32.26       188.19      29.74       
H           34.05       185.75      28.78       
H           31.41       183.11      31.99       
H           31.73       189.41      32.75       
H           30.16       184.7       33.67       
H           34.19       179.53      28.61       
H           35.36       184.26      27.3        
H           33.36       179.77      31.28       
H           32.94       181.25      32.25       
H           34.57278    181.07603   31.5733     
H           31.36       181.17      28.65       
H           31.81       179.75      29.58       
H           30.78065    180.89078   30.32948    
H           32.62       187.69      28.83       
H           31.15       188.18      29.66       
H           32.65075    189.20596   29.68316    
H           34.7        187.75      30.22       
H           34.72       186.55      31.51       
H           34.54098    188.0856    31.98383    
H           35.78       178.75      26.51       
H           30.36       190.04      35.14       
S           36.75       182.14      25.52       
C           35.98       179.83      26.42       
C           36.77       180.37      25.44       
C           27.33       190.08      39.53       
C           28.58       190.61      39.04       
C           26.81       189.04      38.82       
N           29.33       191.5       39.64       
N           30.4        190.72      37.63       
S           30.67       191.87      38.76       
H           27.06       187.68      37.22       
H           25.91       188.53      39.07       
C           27.52       188.51      37.69       
C           29.23       190.08      37.88       
C           28.73       188.93      37.16       
C           18.17       196.31      51.98       
C           17.68       195.74      50.83       
S           19.91       196.28      51.97       
C           21.03       193.42      46.45       
C           21.76       194.05      47.48       
C           23.18       194.06      47.5        
C           23.87       193.48      46.43       
C           23.12       192.84      45.35       
C           21.72       192.79      45.43       
C           25.4        193.58      46.03       
C           25.36       192.69      44.75       
C           24.06       192.47      44.28       
C           19.54       193.6       46.6        
C           19.5        194.33      47.94       
C           20.82       194.65      48.42       
C           26.43       192.28      44.01       
C           26.25       191.62      42.78       
C           24.92       191.44      42.3        
C           23.84       191.85      43.07       
C           18.45       194.71      48.62       
C           18.62       195.3       49.9        
C           19.93       195.58      50.37       
C           21.07       195.27      49.67       
C           25.99       195.01      45.85       
C           26.36       192.78      46.9        
C           18.95       194.43      45.41       
C           18.75       192.3       46.7        
H           21.27       192.46      44.5        
H           23.69       194.59      48.34       
H           17.48       194.55      48.24       
H           22.04       195.42      50.09       
H           27.43       192.44      44.39       
H           22.87       191.46      42.77       
H           25.99       195.55      46.83       
H           26.98       195.03      45.33       
H           25.34962    195.5485    45.15141    
H           26.19       191.74      46.68       
H           27.37       192.84      46.53       
H           26.32435    193.05093   47.95519    
H           18.88       191.68      45.8        
H           17.66       192.45      46.93       
H           19.08456    191.69634   47.54366    
H           18.95       194.01      44.38       
H           17.85       194.54      45.69       
H           19.45066    195.39557   45.33848    
H           28.28       191.26      42.07       
H           16.65       195.66      50.71       
S           24.89       190.63      40.8        
C           27.23       191.11      41.86       
C           26.68       190.66      40.71       
C           15.77       198.06      55.28       
C           17.08       197.71      55.47       
C           15.35       197.89      54.0        
N           17.79       197.89      56.62       
N           19.19       196.84      54.9        
S           19.32       197.31      56.48       
H           15.63       197.23      51.99       
H           14.35       198.16      53.72       
C           16.18       197.34      52.94       
C           17.95       197.08      54.46       
C           17.45       196.85      53.14       
C           3.62        203.49      65.15       
C           3.39        202.99      63.93       
S           5.33        203.26      65.64       
C           7.79        200.56      60.44       
C           8.16        200.98      61.78       
C           9.52        200.85      62.21       
C           10.5        200.44      61.39       
C           10.15       200.1       60.03       
C           8.81        200.15      59.59       
C           12.02       200.56      61.52       
C           12.47       200.01      60.17       
C           11.33       199.79      59.29       
C           6.22        200.84      60.23       
C           5.88        201.36      61.63       
C           6.98        201.46      62.47       
C           13.7        199.92      59.61       
C           13.86       199.46      58.3        
C           12.73       199.27      57.51       
C           11.48       199.43      57.98       
C           4.69        201.82      62.05       
C           4.55        202.4       63.34       
C           5.74        202.48      64.15       
C           6.99        202.1       63.68       
C           12.31       202.08      61.6        
C           12.57       199.64      62.64       
C           6.06        201.89      59.09       
C           5.5         199.5       60.04       
H           8.55        200.0       58.56       
H           9.73        201.22      63.19       
H           3.86        201.77      61.37       
H           7.81        202.17      64.41       
H           14.54       200.0       60.29       
H           10.64       199.2       57.27       
H           11.49       202.56      62.11       
H           12.08       202.42      60.61       
H           13.30256    202.45481   61.84988    
H           12.52       200.09      63.61       
H           13.62       199.39      62.5        
H           12.12202    198.6501    62.72671    
H           4.4         199.6       60.01       
H           5.67        198.94      60.95       
H           5.72377     198.9196    59.14492    
H           6.54        201.61      58.19       
H           5.09        202.01      58.75       
H           6.41536     202.85454   59.45261    
H           16.05       198.99      58.02       
H           2.4         203.16      63.39       
S           13.1        198.6       55.87       
C           15.03       198.94      57.59       
C           14.81       198.55      56.29       
C           0.67        205.55      67.83       
C           0.35        205.21      66.48       
C           1.96        205.13      68.17       
N           -0.87       205.38      65.95       
N           0.7         204.28      64.4        
S           -0.86       204.74      64.44       
H           3.84        204.24      67.75       
H           2.39        205.4       69.13       
C           2.91        204.55      67.29       
C           1.3         204.55      65.59       
C           2.68        204.25      65.98       
H           98.33       85.41       62.65       
H           -0.04       205.93      68.52       
