612

C           80.29       3.51        103.33      
C           79.26       4.29        103.8       
S           80.36       2.05        104.28      
C           74.93       2.02        107.64      
C           76.02       1.12        107.34      
C           76.03       -0.19       107.89      
C           74.97       -0.53       108.76      
C           73.94       0.4         109.02      
C           73.9        1.7         108.45      
C           74.75       -1.86       109.49      
C           73.4        -1.62       110.22      
C           72.91       -0.35       109.84      
C           75.26       3.38        106.99      
C           76.66       3.1         106.36      
C           77.04       1.8         106.52      
C           72.68       -2.51       110.96      
C           71.36       -2.2        111.31      
C           70.91       -0.85       111.06      
C           71.7        0.11        110.34      
C           77.29       3.95        105.45      
C           78.38       3.55        104.75      
C           78.9        2.26        105.13      
C           78.26       1.41        106.04      
C           74.66       -3.11       108.55      
C           75.86       -2.09       110.51      
C           74.19       3.71        105.96      
C           75.33       4.47        108.09      
H           73.03       2.36        108.69      
H           76.79       -0.98       107.64      
H           76.89       4.93        105.25      
H           78.68       0.37        106.24      
H           73.02       -3.48       111.11      
H           71.36       1.16        110.32      
H           75.15       -3.95       108.89      
H           75.38       -2.88       107.75      
H           73.70166    -3.3622     108.09605   
H           76.65       -2.5        109.93      
H           75.59       -2.9        111.21      
H           76.23797    -1.20323    111.0188    
H           74.31       4.89        108.31      
H           75.87       5.21        107.57      
H           75.83943    4.01879     108.94147   
H           74.32       4.73        105.67      
H           73.2        3.8         106.42      
H           74.19714    3.09553     105.05973   
H           70.46       -4.04       112.34      
H           79.05       5.34        103.48      
S           69.27       -0.68       111.74      
C           70.37       -2.99       112.12      
C           69.21       -2.31       112.31      
C           83.61       4.91        100.81      
C           83.61       3.59        101.34      
C           82.45       5.67        101.1       
N           84.59       2.76        101.17      
N           82.79       1.76        102.46      
S           84.3        1.4         101.98      
H           80.39       5.61        101.73      
H           82.35       6.71        100.78      
C           81.35       5.08        101.8       
C           82.54       3.06        102.15      
C           81.4        3.86        102.42      
C           95.77       15.76       96.76       
C           94.48       16.01       96.47       
S           96.04       14.23       97.54       
C           90.12       11.9        97.53       
C           91.39       11.57       98.07       
C           91.6        10.3        98.68       
C           90.52       9.46        98.93       
C           89.24       9.75        98.35       
C           89.08       10.99       97.66       
C           90.47       8.14        99.68       
C           89.06       7.63        99.27       
C           88.35       8.65        98.55       
C           90.11       13.38       97.13       
C           91.65       13.71       97.18       
C           92.35       12.65       97.77       
C           88.42       6.53        99.82       
C           87.0        6.4         99.81       
C           86.34       7.35        99.03       
C           86.99       8.44        98.46       
C           92.25       14.87       96.77       
C           93.63       14.93       96.88       
C           94.35       13.89       97.56       
C           93.66       12.74       98.05       
C           91.6        7.07        99.18       
C           90.47       8.41        101.22      
C           89.58       13.69       95.67       
C           89.31       14.24       98.14       
H           88.08       11.17       97.36       
H           92.59       9.95        98.95       
H           91.73       15.73       96.35       
H           94.19       11.94       98.42       
H           88.93       5.85        100.45      
H           86.4        9.18        98.0        
H           91.42       6.04        99.52       
H           92.53       7.23        99.64       
H           91.50865    6.91541     98.10489    
H           91.54       8.44        101.49      
H           90.07       7.54        101.79      
H           89.94684    9.33076     101.47809   
H           88.32       14.09       97.9        
H           89.58       15.19       97.84       
H           89.52451    14.04694    99.1911     
H           88.52       13.35       95.66       
H           89.61       14.72       95.31       
H           90.05771    13.07882    94.90426    
H           86.41       4.69        101.15      
H           94.08       16.87       95.91       
S           84.59       6.9         98.98       
C           86.11       5.46        100.46      
C           84.73       5.63        100.23      
C           99.5        18.0        96.14       
C           98.24       18.73       96.26       
C           99.41       16.68       96.41       
N           98.06       20.05       96.19       
N           95.88       18.8        96.54       
S           96.38       20.28       96.29       
H           98.25       14.89       96.62       
H           100.34      16.12       96.33       
C           98.21       15.95       96.5        
C           96.97       18.03       96.48       
C           96.95       16.58       96.63       
C           115.82      20.33       97.95       
C           114.85      20.85       98.81       
S           115.02      19.98       96.43       
C           108.95      20.37       97.87       
C           109.66      19.96       96.77       
C           109.06      19.45       95.58       
C           107.63      19.42       95.49       
C           106.93      19.93       96.64       
C           107.54      20.37       97.81       
C           106.77      18.79       94.42       
C           105.41      19.07       95.04       
C           105.53      19.66       96.35       
C           109.82      20.76       99.07       
C           111.13      20.74       98.4        
C           111.06      20.26       97.05       
C           104.24      18.59       94.54       
C           103.06      18.79       95.31       
C           103.15      19.44       96.6        
C           104.41      19.81       97.13       
C           112.34      21.13       98.92       
C           113.48      20.84       98.28       
C           113.42      20.32       97.01       
C           112.2       20.15       96.3        
C           107.1       19.57       93.07       
C           106.9       17.25       94.17       
C           109.38      22.12       99.63       
C           109.83      19.58       100.06      
H           107.01      20.41       98.75       
H           109.65      19.08       94.77       
H           112.26      21.46       99.98       
H           112.14      19.55       95.38       
H           104.24      18.08       93.59       
H           104.47      20.21       98.13       
H           106.37      19.34       92.31       
H           108.01      19.15       92.78       
H           107.05785   20.65898    93.09108    
H           107.82      17.15       93.55       
H           106.08      16.89       93.72       
H           107.08606   16.7133     95.10029    
H           110.75      19.12       100.0       
H           109.22      18.79       99.71       
H           109.74586   19.85346    101.11178   
H           108.53      22.04       100.25      
H           110.1       22.42       100.32      
H           109.35146   22.89048    98.85952    
H           101.53      17.67       94.19       
H           115.09      21.34       99.76       
S           101.55      19.39       97.41       
C           101.75      18.29       95.0        
C           100.86      18.58       96.0        
C           120.09      20.5        97.1        
C           119.47      21.26       98.09       
C           119.23      19.57       96.59       
N           120.16      22.2        98.75       
N           117.73      22.12       99.37       
S           119.13      23.05       99.7        
H           117.36      18.48       96.55       
H           119.65      19.05       95.69       
C           117.86      19.37       96.99       
C           118.12      21.11       98.61       
C           117.23      20.18       97.96       
C           129.22      24.97       84.2        
C           128.63      23.72       84.21       
S           128.85      25.81       85.68       
C           126.0       21.73       89.47       
C           126.34      23.06       89.35       
C           126.27      23.93       90.45       
C           125.67      23.43       91.61       
C           125.23      22.14       91.65       
C           125.41      21.28       90.61       
C           125.13      24.26       92.81       
C           124.4       23.15       93.58       
C           124.5       21.89       92.93       
C           126.21      20.96       88.14       
C           126.92      22.06       87.27       
C           126.96      23.23       88.09       
C           123.53      23.27       94.65       
C           122.9       22.13       95.23       
C           123.12      20.85       94.67       
C           123.96      20.73       93.52       
C           127.4       22.12       85.94       
C           127.98      23.36       85.46       
C           127.96      24.45       86.35       
C           127.52      24.41       87.65       
C           126.25      24.77       93.73       
C           124.08      25.38       92.54       
C           127.17      19.72       88.27       
C           124.89      20.59       87.4        
H           125.07      20.22       90.68       
H           126.44      24.98       90.37       
H           127.23      21.31       85.29       
H           127.6       25.29       88.29       
H           123.41      24.25       95.17       
H           124.06      19.82       92.92       
H           126.86      25.42       93.1        
H           125.75      25.37       94.42       
H           126.89838   24.03885    94.21283    
H           123.29      24.96       91.9        
H           123.67      25.72       93.52       
H           124.469     26.2653     92.03699    
H           125.16      20.16       86.42       
H           124.21      21.44       87.24       
H           124.37119   19.79351    87.93343    
H           126.91      19.04       89.02       
H           126.9       19.13       87.35       
H           128.22682   19.986      88.24843    
H           121.52      22.97       96.71       
H           128.74      23.07       83.34       
S           122.24      19.61       95.53       
C           121.97      22.05       96.32       
C           121.35      20.82       96.46       
C           131.37      27.48       81.3        
C           130.56      26.36       80.85       
C           131.33      27.61       82.66       
N           130.39      25.96       79.57       
N           128.99      24.64       81.22       
S           129.21      24.77       79.55       
H           130.84      27.01       84.64       
H           131.75      28.42       83.14       
C           130.81      26.66       83.57       
C           129.88      25.45       81.77       
C           129.92      25.72       83.18       
C           136.76      41.12       73.23       
C           136.73      40.83       74.51       
S           136.11      39.75       72.3        
C           135.14      35.67       77.11       
C           134.87      35.73       75.68       
C           134.4       34.51       75.1        
C           134.04      33.35       75.87       
C           134.28      33.44       77.25       
C           134.64      34.6        77.82       
C           133.62      31.97       75.36       
C           133.33      31.37       76.77       
C           133.9       32.14       77.82       
C           135.49      37.01       77.65       
C           135.62      37.81       76.34       
C           135.16      37.06       75.24       
C           132.86      30.06       77.01       
C           132.73      29.69       78.41       
C           133.29      30.49       79.42       
C           133.94      31.68       79.18       
C           136.17      39.08       76.15       
C           136.21      39.57       74.85       
C           135.75      38.86       73.72       
C           135.27      37.51       73.94       
C           132.31      31.92       74.55       
C           134.77      31.18       74.69       
C           134.3       37.53       78.52       
C           136.85      37.15       78.45       
H           134.99      34.61       78.9        
H           134.16      34.39       74.05       
H           136.46      39.68       76.96       
H           134.94      36.88       73.11       
H           132.15      29.6        76.29       
H           134.23      32.33       80.0        
H           132.44      32.32       73.58       
H           132.05      30.86       74.37       
H           131.46097   32.47433    74.94996    
H           135.51      31.26       75.41       
H           134.48      30.18       74.67       
H           135.25881   31.63287    73.8274     
H           136.74      37.42       79.51       
H           137.33      38.06       78.03       
H           137.5826    36.35147    78.33278    
H           133.95      36.88       79.32       
H           134.5       38.45       79.03       
H           133.46008   37.8028     77.88108    
H           131.55      27.68       78.33       
H           137.21      41.43       75.17       
S           132.78      29.92       81.02       
C           132.04      28.5        78.98       
C           132.02      28.44       80.33       
C           138.25      44.59       71.05       
C           138.71      44.29       72.38       
C           137.5       43.59       70.53       
N           139.52      45.1        73.13       
N           138.79      43.05       74.37       
S           139.95      44.2        74.46       
H           136.15      41.9        70.73       
H           137.06      43.71       69.59       
C           136.97      42.45       71.22       
C           138.25      43.14       73.13       
C           137.36      42.2        72.49       
C           139.4       58.55       62.39       
C           138.78      57.53       61.73       
S           139.88      58.1        63.99       
C           138.48      52.11       64.53       
C           139.49      53.04       65.04       
C           140.13      52.82       66.26       
C           139.89      51.67       66.96       
C           138.98      50.74       66.45       
C           138.23      50.99       65.32       
C           140.53      51.27       68.32       
C           139.86      49.92       68.45       
C           139.0       49.56       67.35       
C           138.2       52.44       63.02       
C           138.7       53.94       63.03       
C           139.41      54.2        64.23       
C           140.03      49.06       69.54       
C           139.27      47.85       69.53       
C           138.51      47.47       68.42       
C           138.33      48.34       67.3        
C           138.48      54.95       62.09       
C           138.92      56.25       62.45       
C           139.65      56.43       63.67       
C           139.96      55.41       64.55       
C           142.07      51.02       68.31       
C           140.06      52.27       69.45       
C           138.99      51.46       62.07       
C           136.69      52.34       62.83       
H           137.57      50.2        64.91       
H           140.98      53.45       66.6        
H           138.2       54.71       61.06       
H           140.4       55.6        65.45       
H           140.59      49.29       70.42       
H           137.67      48.05       66.47       
H           142.57      50.76       69.28       
H           142.52      52.04       68.11       
H           142.39173   50.2376     67.62266    
H           140.64      53.19       69.3        
H           140.28      51.89       70.46       
H           138.99325   52.45949    69.33069    
H           136.45      51.28       62.93       
H           136.12      52.86       63.61       
H           136.34513   52.65038    61.84368    
H           138.5       51.37       61.11       
H           139.12      50.37       62.39       
H           140.00601   51.81984    61.90772    
H           139.63      46.89       71.41       
H           138.22      57.64       60.85       
S           137.72      45.87       68.63       
C           139.12      46.91       70.51       
C           138.45      45.78       70.23       
C           138.95      62.89       61.67       
C           139.48      62.05       60.61       
C           138.91      62.25       62.88       
N           139.67      62.49       59.37       
N           139.92      60.0        59.61       
S           139.79      61.12       58.43       
H           139.06      60.65       64.04       
H           138.46      62.72       63.69       
C           139.31      60.89       63.09       
C           139.72      60.63       60.81       
C           139.59      60.0        62.11       
C           128.74      75.69       59.81       
C           128.52      74.73       60.81       
S           130.13      75.32       58.9        
C           132.85      70.64       62.36       
C           133.1       71.52       61.26       
C           134.11      71.27       60.28       
C           134.9       70.14       60.43       
C           134.73      69.27       61.53       
C           133.62      69.47       62.41       
C           135.84      69.49       59.44       
C           136.42      68.27       60.26       
C           135.71      68.21       61.48       
C           131.49      70.98       62.97       
C           131.02      72.17       62.09       
C           131.99      72.43       61.14       
C           137.33      67.35       59.88       
C           137.6       66.25       60.76       
C           136.88      66.16       61.95       
C           135.91      67.06       62.29       
C           129.8       72.78       61.98       
C           129.63      73.84       61.03       
C           130.59      74.08       60.08       
C           131.77      73.33       60.1        
C           135.08      69.07       58.13       
C           137.03      70.35       59.07       
C           130.58      69.69       62.85       
C           131.66      71.59       64.37       
H           133.44      68.69       63.18       
H           134.02      71.89       59.42       
H           128.99      72.45       62.59       
H           132.56      73.5        59.41       
H           137.81      67.43       58.87       
H           135.32      66.99       63.17       
H           134.55      69.95       57.83       
H           134.34      68.29       58.46       
H           135.67854   68.64346    57.32507    
H           137.69      70.29       59.88       
H           137.72      69.92       58.35       
H           136.91724   71.42827    58.95724    
H           130.95      71.08       64.95       
H           131.38      72.66       64.25       
H           132.70775   71.53942    64.66626    
H           131.22      68.82       63.08       
H           129.77      69.85       63.61       
H           130.22068   69.51034    61.83673    
H           139.01      64.85       59.69       
H           127.57      74.72       61.41       
S           137.32      64.76       62.83       
C           138.44      65.07       60.56       
C           138.39      64.22       61.6        
C           125.71      78.44       58.16       
C           125.54      77.97       59.52       
C           126.86      78.06       57.47       
N           124.48      78.15       60.31       
N           126.03      76.58       61.25       
S           124.7       77.38       61.73       
H           128.79      77.06       57.39       
H           126.97      78.22       56.37       
C           127.93      77.24       58.05       
C           126.53      77.08       60.08       
C           127.81      76.69       59.36       
C           113.19      83.16       47.98       
C           113.05      82.61       49.25       
S           114.95      83.14       47.63       
C           117.56      81.34       53.06       
C           117.99      81.53       51.72       
C           119.35      81.69       51.41       
C           120.29      81.32       52.39       
C           119.91      80.88       53.64       
C           118.55      80.9        53.99       
C           121.8       81.29       52.19       
C           122.24      80.68       53.55       
C           121.08      80.42       54.35       
C           115.98      81.17       53.16       
C           115.55      81.51       51.72       
C           116.73      81.74       50.97       
C           123.46      80.47       54.13       
C           123.6       79.96       55.45       
C           122.44      79.62       56.17       
C           121.15      79.78       55.6        
C           114.27      81.69       51.2        
C           114.19      82.16       49.91       
C           115.39      82.42       49.17       
C           116.61      82.08       49.63       
C           122.15      80.39       51.03       
C           122.35      82.66       51.97       
C           115.71      79.61       53.49       
C           115.36      82.12       54.17       
H           118.12      80.61       54.99       
H           119.69      82.11       50.49       
H           113.4       81.54       51.79       
H           117.48      82.18       48.95       
H           124.36      80.79       53.65       
H           120.27      79.55       56.16       
H           121.63      80.72       50.09       
H           121.6       79.51       51.29       
H           123.22241   80.28347    50.86665    
H           122.05      82.99       51.05       
H           123.49      82.63       51.96       
H           122.03064   83.37855    52.72484    
H           114.32      81.78       54.25       
H           115.25      83.09       53.55       
H           115.91332   82.23907    55.10154    
H           115.0       79.43       54.28       
H           116.65      79.18       53.75       
H           115.44162   79.04423    52.59782    
H           125.81      79.89       55.8        
H           112.06      82.49       49.77       
S           122.89      78.88       57.7        
C           124.79      79.65       56.19       
C           124.63      79.12       57.4        
C           110.06      84.18       45.0        
C           109.86      84.32       46.4        
C           111.31      83.65       44.71       
N           108.72      84.68       46.95       
N           110.48      84.1        48.68       
S           108.9       84.58       48.62       
H           113.34      83.02       45.29       
H           111.54      83.34       43.65       
C           112.37      83.37       45.66       
C           110.87      84.03       47.41       
C           112.2       83.55       46.98       
C           99.75       87.06       32.36       
C           101.08      87.08       32.23       
S           99.31       86.73       34.0        
C           104.96      85.93       36.65       
C           103.61      85.83       36.98       
C           103.19      85.38       38.22       
C           104.14      85.03       39.1        
C           105.54      85.2        38.87       
C           105.94      85.56       37.57       
C           104.09      84.43       40.53       
C           105.48      84.56       41.11       
C           106.37      85.01       40.09       
C           105.18      86.5        35.24       
C           103.73      86.51       34.81       
C           102.84      86.15       35.81       
C           105.94      84.35       42.41       
C           107.29      84.54       42.68       
C           108.16      84.89       41.62       
C           107.69      85.13       40.29       
C           103.25      86.75       33.58       
C           101.85      86.87       33.35       
C           100.98      86.65       34.43       
C           101.45      86.22       35.7        
C           103.09      85.27       41.38       
C           103.8       82.91       40.45       
C           105.88      87.84       35.32       
C           105.93      85.49       34.33       
H           107.01      85.49       37.36       
H           102.14      85.33       38.5        
H           103.98      87.01       32.77       
H           100.88      86.13       36.62       
H           105.31      84.16       43.2        
H           108.42      85.43       39.6        
H           102.16      85.46       40.9        
H           102.77      84.87       42.31       
H           103.4316    86.28027    41.60531    
H           104.45      82.43       39.74       
H           104.03      82.38       41.36       
H           102.77216   82.70874    40.14812    
H           106.95      85.56       34.48       
H           105.81      85.73       33.28       
H           105.53393   84.48516    34.47669    
H           106.97      87.74       35.55       
H           105.89      88.27       34.34       
H           105.43675   88.57172    35.99543    
H           107.37      84.19       44.84       
H           101.57      87.25       31.26       
S           109.79      84.92       42.37       
C           107.87      84.38       43.97       
C           109.19      84.39       43.91       
C           97.04       87.3        28.74       
C           96.51       87.48       30.06       
C           98.37       86.86       28.81       
N           95.2        87.81       30.36       
N           96.66       87.64       32.39       
S           95.08       87.86       31.99       
H           100.15      86.35       29.78       
H           98.81       86.4        27.95       
C           99.16       86.68       29.96       
C           97.35       87.38       31.26       
C           98.78       87.12       31.25       
C           89.24       85.31       14.31       
C           90.6        85.5        14.34       
S           88.55       85.35       15.95       
C           93.62       86.62       19.48       
C           92.21       86.4        19.62       
C           91.48       86.54       20.82       
C           92.23       86.78       21.93       
C           93.68       86.89       21.81       
C           94.39       86.82       20.63       
C           91.78       87.06       23.34       
C           93.13       87.2        24.02       
C           94.22       87.1        23.17       
C           94.02       86.62       18.01       
C           92.75       86.15       17.38       
C           91.69       86.04       18.37       
C           93.33       87.31       25.38       
C           94.61       87.47       25.93       
C           95.68       87.32       25.06       
C           95.53       87.21       23.67       
C           92.45       85.92       16.07       
C           91.11       85.66       15.7        
C           90.13       85.51       16.7        
C           90.36       85.73       18.03       
C           90.96       88.34       23.49       
C           91.07       85.81       23.86       
C           94.33       88.1        17.58       
C           95.13       85.52       17.77       
H           95.46       86.92       20.61       
H           90.39       86.34       20.79       
H           93.2        86.09       15.27       
H           89.48       85.64       18.7        
H           92.49       87.24       26.11       
H           96.42       87.0        23.03       
H           90.15       88.33       22.81       
H           90.56       88.41       24.55       
H           91.52247    89.24579    23.26355    
H           90.29       85.47       23.15       
H           90.52       86.17       24.62       
H           91.73367    84.9822     24.10977    
H           95.94       85.73       18.5        
H           94.68       84.55       17.87       
H           95.70913    85.60176    16.8502     
H           94.31       88.04       16.45       
H           95.36       88.47       17.81       
H           93.60491    88.83206    17.93557    
H           94.18       87.5        28.13       
H           91.28       85.58       13.51       
S           97.15       87.31       25.99       
C           94.95       87.45       27.33       
C           96.3        87.41       27.51       
C           86.06       83.88       11.72       
C           87.44       83.58       11.37       
C           85.9        84.64       12.79       
N           87.89       82.96       10.24       
N           89.72       83.69       11.77       
S           89.52       82.91       10.31       
H           86.67       85.69       14.48       
H           84.96       85.11       13.04       
C           86.99       85.02       13.64       
C           88.51       84.05       12.24       
C           88.26       84.79       13.38       
H           68.35       -2.73       112.78      
H           85.24       83.46       11.15       
