612

C           100.01      39.53       82.59       
C           98.98       40.33       82.35       
S           99.41       37.99       83.2        
C           93.07       39.07       83.28       
C           93.95       38.0        83.62       
C           93.47       36.84       84.25       
C           92.07       36.61       84.32       
C           91.23       37.64       83.82       
C           91.71       38.87       83.4        
C           91.3        35.54       85.03       
C           89.86       35.88       84.68       
C           89.82       37.21       84.06       
C           93.84       40.29       82.75       
C           95.26       39.76       82.71       
C           95.29       38.41       83.23       
C           88.71       35.18       84.87       
C           87.44       35.8        84.43       
C           87.43       37.13       83.94       
C           88.58       37.84       83.69       
C           96.41       40.43       82.33       
C           97.65       39.78       82.58       
C           97.72       38.45       83.0        
C           96.56       37.78       83.39       
C           91.64       34.14       84.46       
C           91.4        35.63       86.61       
C           93.47       40.53       81.27       
C           93.69       41.58       83.65       
H           91.02       39.68       83.14       
H           94.13       36.05       84.37       
H           96.39       41.42       81.99       
H           96.74       36.82       83.89       
H           88.7        34.17       85.31       
H           88.5        38.77       83.13       
H           92.63       33.75       84.75       
H           90.98       33.49       85.02       
H           91.58792    34.0656     83.37379    
H           91.08       36.69       86.94       
H           90.61       35.01       87.1        
H           92.36543    35.34605    87.02883    
H           94.53       42.26       83.56       
H           93.76       41.3        84.7        
H           92.78376    42.17929    83.5623     
H           92.45       40.89       81.11       
H           94.16       41.27       80.86       
H           93.67658    39.66237    80.64338    
H           85.85       34.4        84.98       
H           99.09       41.31       81.91       
S           85.83       37.67       83.5        
C           86.07       35.32       84.49       
C           85.09       36.19       84.07       
C           104.37      40.16       82.3        
C           103.47      41.14       82.83       
C           103.74      39.0        81.96       
N           103.79      42.32       83.36       
N           101.4       41.89       83.43       
S           102.39      43.05       83.79       
H           101.98      37.73       81.64       
H           104.36      38.17       81.55       
C           102.32      38.74       81.93       
C           102.07      40.83       82.97       
C           101.49      39.68       82.5        
C           120.69      43.21       79.39       
C           120.11      41.97       79.31       
S           119.44      44.39       79.82       
C           114.06      40.85       79.56       
C           114.52      42.16       79.98       
C           113.64      43.06       80.47       
C           112.35      42.67       80.78       
C           111.89      41.44       80.38       
C           112.67      40.5        79.79       
C           111.24      43.56       81.29       
C           110.15      42.47       81.4        
C           110.5       41.25       80.78       
C           115.31      40.04       79.19       
C           116.42      41.07       79.23       
C           115.94      42.3        79.64       
C           108.92      42.64       81.97       
C           108.0       41.6        81.98       
C           108.4       40.41       81.37       
C           109.62      40.22       80.71       
C           117.79      40.83       79.13       
C           118.64      41.93       79.33       
C           118.13      43.23       79.63       
C           116.8       43.34       79.86       
C           111.52      44.07       82.72       
C           110.84      44.64       80.28       
C           115.72      38.95       80.22       
C           115.25      39.46       77.79       
H           112.29      39.57       79.33       
H           113.97      44.09       80.65       
H           118.24      39.83       78.96       
H           116.44      44.26       80.24       
H           108.56      43.53       82.26       
H           109.86      39.21       80.39       
H           112.42      44.65       82.82       
H           110.7       44.72       82.96       
H           111.69295   43.23985    83.40487    
H           110.91      44.16       79.29       
H           109.78      44.95       80.38       
H           111.41498   45.56558    80.30805    
H           116.21      38.95       77.58       
H           115.2       40.38       77.14       
H           114.43405   38.76061    77.60787    
H           115.08      38.02       80.26       
H           116.72      38.47       79.86       
H           115.83241   39.30127    81.24571    
H           106.12      42.43       82.86       
H           120.73      41.06       79.29       
S           106.97      39.33       81.27       
C           106.58      41.52       82.42       
C           105.85      40.4        82.12       
C           124.73      44.74       78.17       
C           124.39      43.32       78.19       
C           123.67      45.53       78.62       
N           125.27      42.35       77.78       
N           123.03      41.51       78.42       
S           124.44      40.95       77.86       
H           121.74      45.75       79.17       
H           123.8       46.59       78.78       
C           122.4       44.98       78.91       
C           123.07      42.82       78.55       
C           122.1       43.63       79.05       
C           139.39      50.83       73.1        
C           139.07      49.51       72.93       
S           137.9       51.65       73.65       
C           133.72      47.13       74.62       
C           133.85      48.51       74.72       
C           132.89      49.37       75.34       
C           131.72      48.75       75.81       
C           131.58      47.36       75.68       
C           132.52      46.51       75.04       
C           130.51      49.44       76.58       
C           129.61      48.18       76.64       
C           130.31      46.97       76.3        
C           134.99      46.5        74.2        
C           135.9       47.68       74.03       
C           135.15      48.88       74.29       
C           128.36      48.15       77.13       
C           127.71      46.89       77.3        
C           128.32      45.71       76.75       
C           129.69      45.73       76.43       
C           137.22      47.71       73.6        
C           137.74      49.06       73.41       
C           136.93      50.18       73.75       
C           135.71      50.14       74.28       
C           130.94      49.99       77.99       
C           129.68      50.53       75.86       
C           135.46      45.57       75.29       
C           134.91      45.71       72.85       
H           132.39      45.45       75.13       
H           132.97      50.47       75.32       
H           137.75      46.82       73.33       
H           135.19      51.1        74.73       
H           127.99      49.04       77.58       
H           130.21      44.8        76.18       
H           131.47      50.93       78.13       
H           129.99      50.21       78.5        
H           131.51508   49.25872    78.55798    
H           129.12      50.24       74.91       
H           128.82      50.78       76.47       
H           130.13144   51.51171    75.71668    
H           134.44      44.71       72.92       
H           135.89      45.52       72.48       
H           134.58218   46.35852    72.03757    
H           134.66      44.85       75.66       
H           136.22      44.88       74.99       
H           135.91078   46.13527    76.1057     
H           125.7       47.29       78.21       
H           139.81      48.75       72.6        
S           127.27      44.29       76.97       
C           126.43      46.61       77.79       
C           126.02      45.28       77.77       
C           143.57      52.43       73.88       
C           142.44      53.24       73.49       
C           143.2       51.09       73.97       
N           142.47      54.57       73.43       
N           140.24      53.71       72.77       
S           141.01      55.15       72.9        
H           141.7       49.51       73.84       
H           143.93      50.32       74.35       
C           141.86      50.59       73.63       
C           141.13      52.77       73.13       
C           140.78      51.36       73.23       
C           155.77      56.8        83.94       
C           155.69      55.5        83.58       
S           154.88      57.88       82.9        
C           152.1       53.87       78.81       
C           152.15      55.25       79.08       
C           151.33      56.15       78.39       
C           150.36      55.7        77.52       
C           150.28      54.29       77.3        
C           151.11      53.35       77.94       
C           149.13      56.45       76.93       
C           148.48      55.32       76.1        
C           149.05      54.08       76.45       
C           152.99      53.1        79.77       
C           153.58      54.23       80.66       
C           153.08      55.5        80.2        
C           147.34      55.5        75.3        
C           146.65      54.26       75.02       
C           147.19      52.96       75.39       
C           148.45      52.91       76.01       
C           154.49      54.2        81.68       
C           154.83      55.32       82.43       
C           154.24      56.55       82.01       
C           153.33      56.66       80.93       
C           148.12      57.01       78.01       
C           149.59      57.55       75.96       
C           152.16      52.04       80.48       
C           154.11      52.5        78.92       
H           151.03      52.27       77.77       
H           151.46      57.22       78.45       
H           154.91      53.27       82.06       
H           153.02      57.67       80.65       
H           146.95      56.51       75.13       
H           148.91      52.0        76.3        
H           147.7       57.99       77.74       
H           148.68      57.21       78.91       
H           147.44092   56.2579     78.41161    
H           150.21      58.32       76.46       
H           148.59      57.95       75.59       
H           150.19232   57.15779    75.14056    
H           153.86      51.46       78.57       
H           155.0       52.58       79.46       
H           154.27065   53.00988    77.97009    
H           151.77      51.32       79.78       
H           151.24      52.52       80.78       
H           152.64588   51.51307    81.3012     
H           144.83      55.02       74.03       
H           156.27      54.74       84.12       
S           146.05      51.66       74.91       
C           145.4       54.12       74.31       
C           144.92      52.84       74.21       
C           157.46      58.98       87.34       
C           157.33      57.58       87.45       
C           156.99      59.57       86.16       
N           157.68      56.82       88.45       
N           156.68      55.49       86.62       
S           157.31      55.23       88.16       
H           156.18      59.36       84.21       
H           156.89      60.64       86.18       
C           156.44      58.8        85.08       
C           156.76      56.81       86.32       
C           156.37      57.43       85.09       
C           165.41      70.4        96.43       
C           165.18      70.5        95.06       
S           165.07      68.77       97.03       
C           162.09      66.34       92.0        
C           162.21      66.07       93.4        
C           161.67      64.84       93.89       
C           160.95      64.01       92.99       
C           160.8       64.31       91.59       
C           161.43      65.48       91.15       
C           160.46      62.6        93.3        
C           159.8       62.23       91.95       
C           160.01      63.25       91.01       
C           162.63      67.75       91.71       
C           163.36      68.05       92.93       
C           162.95      67.15       93.97       
C           159.17      61.05       91.61       
C           158.77      60.8        90.26       
C           159.14      61.83       89.3        
C           159.82      63.02       89.65       
C           164.06      69.16       93.22       
C           164.5       69.35       94.52       
C           164.29      68.35       95.52       
C           163.45      67.27       95.31       
C           161.74      61.72       93.6        
C           159.47      62.71       94.56       
C           163.71      67.67       90.51       
C           161.44      68.64       91.32       
H           161.47      65.76       90.1        
H           161.94      64.42       94.84       
H           164.35      69.85       92.44       
H           163.18      66.58       96.06       
H           159.04      60.27       92.31       
H           160.14      63.71       88.9        
H           161.5       60.68       93.66       
H           162.19      61.98       94.47       
H           162.5412    61.77723    92.86318    
H           159.54      63.73       94.97       
H           159.76      62.06       95.32       
H           158.43099   62.51916    94.29141    
H           161.01      68.38       90.39       
H           160.64      68.5        92.07       
H           161.59147   69.71469    91.21902    
H           163.19      67.66       89.56       
H           164.4       68.53       90.64       
H           164.36593   66.80018    90.54565    
H           157.63      58.9        90.2        
H           165.42      71.38       94.48       
S           158.77      61.27       87.69       
C           158.04      59.77       89.64       
C           157.94      59.92       88.34       
C           168.06      72.98       98.92       
C           167.11      71.99       99.52       
C           167.96      73.06       97.55       
N           167.07      71.75       100.84      
N           165.5       70.41       99.39       
S           165.88      70.57       101.0       
H           167.15      72.39       95.66       
H           168.64      73.66       97.03       
C           167.05      72.29       96.75       
C           166.21      71.26       98.67       
C           166.17      71.39       97.23       
C           182.41      77.27       104.24      
C           181.94      78.07       103.27      
S           181.11      76.7        105.32      
C           176.16      77.79       101.69      
C           176.41      77.45       102.98      
C           175.46      76.85       103.83      
C           174.27      76.6        103.26      
C           173.95      76.99       101.92      
C           174.86      77.7        101.12      
C           173.24      75.62       103.84      
C           172.21      75.56       102.67      
C           172.74      76.22       101.57      
C           177.44      78.44       101.02      
C           178.42      78.39       102.18      
C           177.79      77.63       103.23      
C           171.06      74.89       102.57      
C           170.54      74.59       101.36      
C           171.07      75.17       100.2       
C           172.14      76.03       100.35      
C           179.77      78.61       102.19      
C           180.51      78.08       103.18      
C           179.93      77.41       104.22      
C           178.52      77.34       104.36      
C           174.03      74.3        104.18      
C           172.65      76.33       105.09      
C           178.04      77.74       99.77       
C           176.98      79.9        100.62      
H           174.6       77.88       100.13      
H           175.71      76.45       104.78      
H           180.23      79.12       101.41      
H           178.13      76.65       105.15      
H           170.58      74.53       103.5       
H           172.61      76.43       99.41       
H           174.66      74.47       105.09      
H           174.64      74.24       103.29      
H           173.39577   73.41352    104.18      
H           173.38      76.64       105.84      
H           171.97      75.58       105.56      
H           172.06061   77.21409    104.84688   
H           176.56      79.88       99.63       
H           176.22      80.27       101.27      
H           177.75708   80.66269    100.67037   
H           179.0       78.18       99.49       
H           177.37      77.71       98.96       
H           178.21295   76.6735     99.91412    
H           168.7       73.37       101.86      
H           182.57      78.36       102.44      
S           170.19      74.66       98.8        
C           169.29      73.83       101.09      
C           169.05      73.73       99.71       
C           186.19      75.08       103.87      
C           186.09      76.5        103.56      
C           185.0       74.57       104.34      
N           187.09      77.32       103.2       
N           184.97      78.57       103.56      
S           186.46      78.79       102.99      
H           182.91      74.77       104.73      
H           184.94      73.54       104.45      
C           183.79      75.3        104.4       
C           184.87      77.27       103.81      
C           183.7       76.66       104.23      
C           198.61      65.28       98.3        
C           198.23      66.42       97.72       
S           197.48      64.73       99.54       
C           194.26      70.14       100.47      
C           194.11      68.78       100.79      
C           193.06      68.35       101.54      
C           192.16      69.29       101.99      
C           192.29      70.71       101.74      
C           193.38      71.13       100.94      
C           190.71      69.07       102.54      
C           190.22      70.51       102.85      
C           191.13      71.46       102.36      
C           195.44      70.37       99.59       
C           195.84      68.94       99.25       
C           195.19      68.05       100.17      
C           189.01      70.84       103.43      
C           188.69      72.21       103.48      
C           189.52      73.18       102.85      
C           190.81      72.79       102.31      
C           196.75      68.49       98.37       
C           197.16      67.07       98.46       
C           196.58      66.25       99.51       
C           195.6       66.72       100.36      
C           189.8       68.38       101.39      
C           190.67      68.27       103.86      
C           194.94      71.03       98.28       
C           196.65      71.05       100.15      
H           193.49      72.16       100.57      
H           192.99      67.29       101.84      
H           197.13      69.14       97.65       
H           195.2       66.12       101.16      
H           188.32      70.17       103.83      
H           191.49      73.54       101.86      
H           190.25      67.44       101.13      
H           188.82      68.09       101.73      
H           189.7349    69.04549    100.5292    
H           191.37      68.62       104.57      
H           189.69      68.42       104.33      
H           190.80571   67.19791    103.71751   
H           196.8       72.08       99.74       
H           197.62      70.54       99.99       
H           196.63534   71.15264    101.23506   
H           194.43      71.98       98.59       
H           195.81      71.38       97.76       
H           194.21061   70.40893    97.76004    
H           186.66      72.25       104.42      
H           198.87      66.93       96.99       
S           188.78      74.77       102.97      
C           187.47      72.83       103.98      
C           187.37      74.2        103.66      
C           201.47      62.12       97.22       
C           201.32      63.25       96.42       
C           200.8       62.14       98.45       
N           202.12      63.48       95.4        
N           200.38      65.22       95.7        
S           201.63      64.89       94.76       
H           199.54      63.21       99.8        
H           200.95      61.46       99.22       
C           199.93      63.18       98.79       
C           200.42      64.34       96.7        
C           199.69      64.31       97.98       
C           214.15      51.0        97.17       
C           213.39      51.45       98.22       
S           213.54      51.9        95.77       
C           208.85      55.45       98.21       
C           209.6       55.35       97.03       
C           209.24      56.11       95.92       
C           208.09      56.95       96.04       
C           207.44      57.0        97.24       
C           207.78      56.24       98.37       
C           207.67      58.1        95.08       
C           206.47      58.56       95.82       
C           206.35      58.01       97.08       
C           209.54      54.59       99.27       
C           210.65      53.96       98.49       
C           210.67      54.38       97.14       
C           205.49      59.44       95.39       
C           204.39      59.88       96.16       
C           204.34      59.39       97.49       
C           205.31      58.48       97.96       
C           211.55      53.08       98.94       
C           212.46      52.45       97.99       
C           212.36      52.79       96.64       
C           211.49      53.84       96.21       
C           208.89      59.05       94.98       
C           207.22      57.57       93.69       
C           210.06      55.4        100.48      
C           208.6       53.48       99.82       
H           207.21      56.28       99.35       
H           209.8       56.02       95.0        
H           211.74      52.82       99.99       
H           211.43      54.04       95.13       
H           205.57      59.82       94.32       
H           205.18      58.1        98.97       
H           209.42      58.98       94.02       
H           209.56      58.75       95.69       
H           208.65108   60.09256    95.18996    
H           208.09      57.04       93.27       
H           207.18      58.44       93.09       
H           206.36856   56.89304    93.75979    
H           209.21      52.72       100.27      
H           208.06      52.92       99.07       
H           207.85196   53.87406    100.50793   
H           210.14      54.77       101.34      
H           209.27      56.14       100.64      
H           211.01605   55.89943    100.32304   
H           203.36      61.43       94.98       
H           213.47      51.16       99.2        
S           202.87      59.99       98.24       
C           203.37      60.86       95.93       
C           202.49      61.07       96.94       
C           217.44      48.05       96.51       
C           216.72      48.22       97.79       
C           216.96      48.85       95.55       
N           216.96      47.55       98.86       
N           215.24      49.29       99.33       
S           216.01      48.07       100.08      
H           215.37      50.23       94.81       
H           217.38      48.82       94.56       
C           215.85      49.81       95.72       
C           215.68      49.21       98.01       
C           215.2       50.04       96.97       
C           228.47      35.94       93.75       
C           227.96      36.27       94.98       
S           228.2       37.21       92.62       
C           224.51      41.1        96.02       
C           224.98      41.07       94.69       
C           224.67      42.0        93.73       
C           223.75      42.98       94.08       
C           223.26      43.0        95.39       
C           223.66      42.12       96.43       
C           223.12      44.08       93.23       
C           222.1       44.66       94.22       
C           222.18      43.98       95.44       
C           225.18      40.12       96.96       
C           226.06      39.33       95.94       
C           225.82      39.9        94.61       
C           221.12      45.65       94.05       
C           220.15      45.85       95.11       
C           220.26      45.15       96.25       
C           221.25      44.19       96.47       
C           226.74      38.17       96.12       
C           227.27      37.57       95.0        
C           227.3       38.24       93.75       
C           226.54      39.43       93.55       
C           224.17      45.16       92.8        
C           222.24      43.63       92.08       
C           226.19      40.89       97.92       
C           224.33      39.05       97.63       
H           223.29      42.11       97.44       
H           225.25      42.11       92.83       
H           226.78      37.7        97.08       
H           226.29      39.9        92.55       
H           220.99      46.03       93.04       
H           221.29      43.52       97.34       
H           224.8       44.77       91.99       
H           223.65      46.03       92.45       
H           224.85109   45.49696    93.58146    
H           221.39      43.11       92.54       
H           221.9       44.48       91.46       
H           222.69505   42.8667     91.44881    
H           224.82      38.52       98.43       
H           224.2       38.25       96.83       
H           223.36682   39.37804    98.02086    
H           226.4       40.28       98.76       
H           225.67      41.82       98.3        
H           227.06894   41.17829    97.34341    
H           219.25      47.55       94.14       
H           228.2       35.7        95.86       
S           219.04      45.82       97.38       
C           219.25      46.95       95.09       
C           218.49      47.08       96.22       
C           231.33      32.64       92.81       
C           230.39      33.07       91.76       
C           231.14      33.32       94.04       
N           230.29      32.76       90.46       
N           228.6       34.51       90.97       
S           229.28      33.71       89.64       
H           230.15      34.69       95.29       
H           231.61      32.96       94.95       
C           230.13      34.34       94.25       
C           229.4       34.16       92.03       
C           229.28      34.81       93.36       
C           239.65      18.34       92.7        
C           238.55      18.6        92.04       
S           239.92      19.54       94.0        
C           235.23      23.62       92.73       
C           236.4       23.58       93.56       
C           236.75      24.75       94.34       
C           236.11      25.93       94.12       
C           234.94      25.94       93.35       
C           234.42      24.75       92.76       
C           236.39      27.29       94.74       
C           235.46      28.18       93.92       
C           234.57      27.36       93.18       
C           235.05      22.33       91.94       
C           236.35      21.65       92.25       
C           237.08      22.34       93.31       
C           235.13      29.54       94.05       
C           234.02      30.06       93.32       
C           233.23      29.25       92.46       
C           233.43      27.86       92.48       
C           236.74      20.39       91.89       
C           237.84      19.81       92.5        
C           238.53      20.46       93.53       
C           238.2       21.78       93.94       
C           236.07      27.46       96.25       
C           237.91      27.63       94.42       
C           233.82      21.64       92.64       
C           234.8       22.69       90.45       
H           233.51      24.85       92.22       
H           237.68      24.67       94.97       
H           236.28      19.83       91.09       
H           238.71      22.29       94.82       
H           235.75      30.13       94.7        
H           232.85      27.2        91.82       
H           236.61      26.74       96.85       
H           236.42      28.41       96.57       
H           235.00187   27.39758    96.45808    
H           238.17      27.11       93.49       
H           238.09      28.66       94.32       
H           238.65548   27.23693    95.11127    
H           233.78      23.06       90.31       
H           235.07      21.89       89.84       
H           235.44656   23.48351    90.07529    
H           232.9       22.11       92.2        
H           233.88      21.7        93.7        
H           233.73781   20.57834    92.40712    
H           233.77      32.14       93.97       
H           238.18      18.1        91.13       
S           231.76      30.05       91.91       
C           233.44      31.32       93.41       
C           232.25      31.48       92.75       
C           243.28      15.98       91.87       
C           242.27      16.07       90.9        
C           242.94      16.49       93.12       
N           242.26      15.52       89.68       
N           240.08      16.46       90.18       
S           240.82      15.74       88.95       
H           241.6       17.53       94.25       
H           243.66      16.43       93.92       
C           241.69      17.13       93.28       
C           240.98      16.73       91.12       
C           240.77      17.46       92.36       
H           84.02       36.08       84.31       
H           244.37      15.8        91.57       
