612

C           52.05       9.15        101.79      
C           51.17       8.71        102.72      
S           53.55       9.48        102.61      
C           52.19       7.53        108.58      
C           53.36       7.89        107.91      
C           54.67       8.02        108.48      
C           54.74       7.65        109.85      
C           53.58       7.22        110.56      
C           52.32       7.23        109.96      
C           55.9        7.54        110.89      
C           55.25       7.15        112.17      
C           53.9        7.08        111.94      
C           50.97       7.33        107.64      
C           51.6        7.84        106.34      
C           52.98       8.13        106.48      
C           55.7        7.14        113.45      
C           54.88       6.92        114.49      
C           53.54       6.65        114.23      
C           53.01       6.74        112.97      
C           50.95       8.03        105.13      
C           51.64       8.47        104.01      
C           52.99       8.77        104.16      
C           53.68       8.56        105.39      
C           56.88       6.42        110.55      
C           56.79       8.77        111.16      
C           50.36       5.89        107.54      
C           49.94       8.34        108.1       
H           51.45       6.96        110.59      
H           55.55       8.29        107.88      
H           49.9        7.79        104.98      
H           54.66       9.04        105.53      
H           56.77       7.17        113.62      
H           52.01       6.59        112.81      
H           57.26       6.56        109.59      
H           57.68       6.33        111.38      
H           56.36941    5.45801     110.5056    
H           56.03       9.45        111.61      
H           57.52       8.45        111.89      
H           57.20779    9.24643     110.27311   
H           49.29       8.65        107.27      
H           50.49       9.32        108.25      
H           49.41229    8.12446     109.02907   
H           49.89       5.54        108.47      
H           49.62       5.89        106.79      
H           51.09923    5.10771     107.36775   
H           56.06       7.24        116.35      
H           50.11       8.79        102.39      
S           52.63       6.31        115.73      
C           55.11       6.91        115.9       
C           54.04       6.67        116.73      
C           51.04       10.51       97.73       
C           52.23       9.75        97.95       
C           50.28       10.66       98.83       
N           53.13       9.61        97.02       
N           53.73       8.56        99.2        
S           54.27       8.59        97.67       
H           50.03       10.51       100.88      
H           49.35       11.25       98.79       
C           50.65       10.19       100.13      
C           52.59       9.26        99.27       
C           51.77       9.52        100.38      
C           44.46       18.14       84.37       
C           44.55       18.7        85.63       
S           44.96       16.46       84.54       
C           46.5        15.82       90.67       
C           46.39       15.04       89.42       
C           46.93       13.78       89.43       
C           47.78       13.34       90.53       
C           47.79       14.11       91.76       
C           47.08       15.31       91.85       
C           48.59       12.05       90.66       
C           49.01       12.12       92.15       
C           48.51       13.34       92.75       
C           45.86       17.21       90.41       
C           45.56       17.1        88.91       
C           45.88       15.83       88.37       
C           49.87       11.23       92.83       
C           50.0        11.39       94.29       
C           49.4        12.54       94.8        
C           48.78       13.61       94.09       
C           45.19       18.13       88.1        
C           44.98       17.9        86.73       
C           45.19       16.54       86.26       
C           45.71       15.5        87.03       
C           47.73       10.81       90.23       
C           49.89       12.18       89.76       
C           44.67       17.47       91.34       
C           46.91       18.34       90.62       
H           47.03       15.84       92.77       
H           46.94       13.21       88.54       
H           45.0        19.11       88.48       
H           45.94       14.51       86.67       
H           50.28       10.29       92.4        
H           48.55       14.62       94.46       
H           47.4        10.83       89.15       
H           46.81       10.77       90.8        
H           48.19904    9.8364      90.37213    
H           50.38       13.04       90.2        
H           50.57       11.33       89.86       
H           49.81023    12.42656    88.70125    
H           46.96       18.64       91.65       
H           46.72       19.06       89.87       
H           47.91113    17.99934    90.35581    
H           45.14       17.35       92.34       
H           44.34       18.49       91.22       
H           43.89142    16.71284    91.24714    
H           51.18       9.58        94.99       
H           44.22       19.79       85.74       
S           49.71       12.54       96.52       
C           50.71       10.56       95.24       
C           50.59       11.03       96.47       
C           44.35       20.33       80.57       
C           44.99       20.87       81.73       
C           43.7        19.14       80.77       
N           45.67       21.95       81.81       
N           45.87       20.66       83.85       
S           46.6        21.94       83.1        
H           43.12       17.47       82.01       
H           43.29       18.64       79.93       
C           43.7        18.4        82.0        
C           45.06       20.08       82.95       
C           44.44       18.86       83.11       
C           49.39       19.56       66.01       
C           48.11       19.06       66.27       
S           49.49       21.12       66.83       
C           44.62       21.18       70.76       
C           45.68       22.02       70.45       
C           46.13       23.01       71.29       
C           45.76       22.95       72.65       
C           44.74       21.97       72.96       
C           44.04       21.22       72.03       
C           46.43       23.57       73.88       
C           45.6        22.83       74.98       
C           44.62       21.97       74.44       
C           44.21       20.27       69.57       
C           45.49       20.44       68.73       
C           46.19       21.6        69.16       
C           45.87       22.81       76.34       
C           45.09       22.03       77.24       
C           44.06       21.2        76.74       
C           43.84       21.14       75.29       
C           45.92       19.65       67.66       
C           47.25       19.87       67.19       
C           47.93       21.12       67.62       
C           47.36       22.07       68.56       
C           47.98       23.31       73.8        
C           46.11       25.08       73.92       
C           44.04       18.76       70.09       
C           42.91       20.72       68.92       
H           43.12       20.62       72.16       
H           46.93       23.66       71.04       
H           45.33       18.78       67.39       
H           47.84       22.95       68.92       
H           46.63       23.45       76.77       
H           43.15       20.47       74.86       
H           48.39       23.83       72.92       
H           48.45       23.66       74.7        
H           48.14191    22.23292    73.75776    
H           45.0        25.26       73.98       
H           46.5        25.4        74.85       
H           46.5282     25.66959    73.10417    
H           42.01       20.42       69.49       
H           42.92       21.79       68.97       
H           42.83319    20.45465    67.86559    
H           43.09       18.68       70.65       
H           44.07       18.09       69.21       
H           44.85235    18.42093    70.73282    
H           45.97       22.29       79.32       
H           47.8        18.07       65.99       
S           43.36       20.22       78.02       
C           45.22       21.83       78.7        
C           44.38       20.92       79.25       
C           52.55       17.52       63.8        
C           52.75       18.85       64.25       
C           51.22       17.08       63.89       
N           53.94       19.53       64.23       
N           52.13       20.75       65.43       
S           53.74       20.87       65.19       
H           49.21       17.28       64.68       
H           50.95       16.14       63.41       
C           50.18       17.74       64.59       
C           51.72       19.55       65.03       
C           50.41       18.97       65.26       
C           61.24       6.44        54.92       
C           59.9        6.46        54.96       
S           61.96       7.85        55.67       
C           56.75       10.44       58.31       
C           58.06       10.81       57.94       
C           58.63       12.02       58.39       
C           57.81       12.99       59.03       
C           56.49       12.62       59.29       
C           56.02       11.3        59.03       
C           58.04       14.5        59.33       
C           56.85       14.65       60.32       
C           55.85       13.66       60.11       
C           56.36       9.02        57.75       
C           57.7        8.69        56.97       
C           58.7        9.7         57.2        
C           56.52       15.82       61.05       
C           55.28       15.9        61.65       
C           54.35       14.97       61.4        
C           54.61       13.82       60.63       
C           58.03       7.57        56.21       
C           59.36       7.49        55.77       
C           60.37       8.4         56.1        
C           60.01       9.58        56.73       
C           59.39       14.69       60.0        
C           57.77       15.48       58.14       
C           56.15       8.03        58.9        
C           55.16       9.2         56.78       
H           54.97       11.12       59.3        
H           59.67       12.25       58.24       
H           57.3        6.78        55.98       
H           60.81       10.32       57.04       
H           57.3        16.51       61.33       
H           53.95       13.02       60.53       
H           60.14       14.13       59.4        
H           59.64       15.79       59.99       
H           59.4974     14.33199    61.02391    
H           56.73       15.36       57.79       
H           57.96       16.46       58.33       
H           58.45922    15.26198    57.32419    
H           54.21       9.77        57.18       
H           55.52       9.85        56.04       
H           55.00275    8.3137      56.16531    
H           56.02       7.02        58.71       
H           55.19       8.37        59.14       
H           56.87589    8.19751     59.69569    
H           55.26       17.84       62.76       
H           59.26       5.65        54.55       
S           52.91       15.17       62.35       
C           54.74       16.92       62.45       
C           53.49       16.71       62.93       
C           63.86       3.9         52.4        
C           62.63       4.54        51.91       
C           63.95       3.98        53.79       
N           62.33       4.56        50.61       
N           60.8        5.93        52.01       
S           61.03       5.51        50.4        
H           63.4        4.86        55.6        
H           64.81       3.52        54.39       
C           63.11       4.84        54.58       
C           61.7        5.3         52.75       
C           62.05       5.58        54.09       
C           78.2        1.12        44.55       
C           78.06       1.89        45.68       
S           76.62       0.79        43.93       
C           72.68       2.68        48.5        
C           72.56       2.14        47.24       
C           71.37       1.63        46.7        
C           70.22       1.81        47.42       
C           70.34       2.4         48.72       
C           71.54       2.68        49.33       
C           68.77       1.6         47.03       
C           68.09       1.93        48.35       
C           69.01       2.48        49.25       
C           74.08       3.11        48.84       
C           74.8        2.64        47.56       
C           73.88       2.06        46.64       
C           66.71       1.88        48.63       
C           66.23       2.46        49.87       
C           67.18       2.99        50.73       
C           68.53       2.97        50.5        
C           76.13       2.75        47.27       
C           76.7        2.15        46.09       
C           75.7        1.6         45.19       
C           74.29       1.57        45.38       
C           68.25       2.65        45.98       
C           68.37       0.15        46.62       
C           74.21       4.65        49.03       
C           74.8        2.36        49.94       
H           71.6        3.08        50.36       
H           71.31       1.28        45.66       
H           76.74       3.29        47.94       
H           73.63       1.1         44.73       
H           65.93       1.45        47.97       
H           69.19       3.4         51.18       
H           68.84       2.56        45.08       
H           67.17       2.47        45.79       
H           68.39538    3.68844     46.27768    
H           68.75       -0.58       47.39       
H           67.25       0.03        46.64       
H           68.6737     -0.17648    45.62538    
H           75.78       2.85        50.03       
H           74.98       1.34        49.68       
H           74.24392    2.31073     50.87619    
H           73.63       4.98        49.86       
H           75.18       4.95        49.32       
H           73.94937    5.24477     48.15455    
H           63.97       2.38        49.89       
H           78.92       2.07        46.33       
S           66.47       3.8         52.12       
C           64.89       2.62        50.41       
C           64.87       3.27        51.6        
C           81.12       -2.03       43.67       
C           81.45       -0.99       44.61       
C           79.98       -1.78       42.93       
N           82.36       -1.05       45.6        
N           80.87       0.96        45.82       
S           82.15       0.25        46.56       
H           78.19       -0.78       42.59       
H           79.66       -2.51       42.19       
C           79.12       -0.71       43.12       
C           80.52       0.16        44.79       
C           79.28       0.28        44.09       
C           85.82       -17.9       42.54       
C           85.73       -17.08      41.41       
S           85.92       -16.98      44.05       
C           84.4        -11.12      41.77       
C           84.66       -11.79      42.97       
C           84.47       -11.07      44.2        
C           84.23       -9.71       44.3        
C           84.0        -9.06       43.05       
C           84.06       -9.79       41.84       
C           84.17       -8.79       45.44       
C           83.55       -7.55       44.72       
C           83.61       -7.67       43.27       
C           84.89       -12.01      40.58       
C           85.07       -13.35      41.31       
C           85.02       -13.22      42.69       
C           82.99       -6.38       45.26       
C           82.62       -5.34       44.41       
C           82.76       -5.44       42.96       
C           83.31       -6.61       42.37       
C           85.38       -14.61      40.85       
C           85.57       -15.7       41.77       
C           85.56       -15.5       43.18       
C           85.26       -14.2       43.64       
C           83.36       -9.29       46.66       
C           85.58       -8.45       46.06       
C           83.83       -12.04      39.45       
C           86.35       -11.6       40.23       
H           83.91       -9.28       40.9        
H           84.65       -11.7       45.04       
H           85.2        -14.78      39.8        
H           85.17       -13.93      44.72       
H           82.59       -6.34       46.27       
H           83.35       -6.64       41.21       
H           84.0        -9.85       47.29       
H           83.21       -8.3        47.25       
H           82.43857    -9.81653    46.41136    
H           86.08       -9.14       46.73       
H           85.37       -7.7        46.8        
H           86.32798    -8.07238    45.36285    
H           86.4        -10.61      39.83       
H           87.0        -11.55      41.16       
H           86.87056    -12.23624   39.51423    
H           84.38       -12.05      38.48       
H           83.31       -11.15      39.48       
H           83.08966    -12.82389   39.60968    
H           81.79       -3.89       45.82       
H           85.82       -17.3       40.33       
S           82.09       -4.08       42.13       
C           82.0        -4.13       44.73       
C           81.64       -3.34       43.66       
C           86.71       -22.16      43.13       
C           86.69       -21.56      41.81       
C           86.3        -21.28      44.1        
N           86.77       -22.28      40.75       
N           86.47       -19.82      40.31       
S           86.72       -21.25      39.49       
H           86.01       -19.36      44.86       
H           86.34       -21.5       45.19       
C           86.16       -19.91      43.97       
C           86.44       -20.14      41.6        
C           86.06       -19.31      42.72       
C           86.67       -38.25      41.55       
C           87.61       -37.52      40.95       
S           85.92       -37.51      42.93       
C           88.66       -31.77      42.7        
C           87.73       -32.45      43.53       
C           86.97       -31.8       44.5        
C           87.12       -30.45      44.67       
C           87.96       -29.7       43.81       
C           88.75       -30.35      42.86       
C           86.45       -29.41      45.63       
C           86.91       -28.08      45.02       
C           87.77       -28.31      43.92       
C           89.15       -32.64      41.56       
C           88.52       -33.99      41.89       
C           87.68       -33.84      43.05       
C           86.31       -26.84      45.17       
C           86.8        -25.73      44.43       
C           87.8        -25.96      43.5        
C           88.22       -27.26      43.13       
C           88.61       -35.21      41.14       
C           87.79       -36.28      41.54       
C           86.87       -36.03      42.64       
C           86.86       -34.9       43.41       
C           84.86       -29.71      45.47       
C           86.92       -29.7       47.02       
C           88.67       -32.05      40.22       
C           90.68       -32.82      41.51       
H           89.54       -29.93      42.23       
H           86.28       -32.33      45.19       
H           89.33       -35.22      40.26       
H           86.09       -34.69      44.12       
H           85.58       -26.66      46.02       
H           88.96       -27.45      42.37       
H           84.72       -30.72      45.74       
H           84.62       -29.51      44.38       
H           84.20403    -29.10813   46.09892    
H           86.79       -30.76      47.15       
H           86.33       -29.2       47.86       
H           87.96759    -29.43991   47.17172    
H           91.28       -32.11      40.86       
H           90.85       -33.78      41.17       
H           91.06927    -32.82749   42.52809    
H           89.36       -32.36      39.4        
H           88.85       -30.98      40.21       
H           87.61963    -32.23781   39.99741    
H           86.01       -23.86      45.39       
H           88.13       -37.97      40.09       
S           88.17       -24.51      42.61       
C           86.56       -24.31      44.53       
C           86.92       -23.61      43.38       
C           84.83       -42.17      40.48       
C           85.4        -41.32      39.46       
C           85.08       -41.74      41.73       
N           85.49       -41.59      38.15       
N           86.67       -39.5       38.73       
S           86.35       -40.41      37.44       
H           85.77       -40.36      43.15       
H           84.67       -42.3       42.54       
C           85.72       -40.51      42.08       
C           86.05       -40.05      39.8        
C           86.1        -39.59      41.17       
C           74.76       -53.77      33.95       
C           75.95       -53.38      33.37       
S           74.59       -53.15      35.54       
C           80.0        -49.69      36.16       
C           78.81       -49.9       36.97       
C           78.63       -49.2       38.16       
C           79.61       -48.3       38.61       
C           80.79       -48.11      37.87       
C           80.95       -48.74      36.62       
C           79.38       -47.37      39.74       
C           80.78       -46.63      39.68       
C           81.52       -47.08      38.6        
C           79.99       -50.39      34.8        
C           78.63       -51.11      34.93       
C           77.97       -50.86      36.21       
C           81.19       -45.61      40.51       
C           82.37       -45.0       40.22       
C           83.16       -45.49      39.14       
C           82.75       -46.57      38.36       
C           78.02       -51.92      34.0        
C           76.74       -52.51      34.26       
C           76.09       -52.25      35.49       
C           76.7        -51.43      36.44       
C           78.14       -46.47      39.49       
C           79.37       -47.9       41.23       
C           79.75       -49.24      33.71       
C           81.16       -51.33      34.49       
H           81.84       -48.44      36.03       
H           77.82       -49.38      38.85       
H           78.49       -52.16      33.1        
H           76.09       -51.26      37.38       
H           80.56       -45.3       41.3        
H           83.35       -46.81      37.5        
H           77.25       -47.09      39.56       
H           78.05       -45.72      40.36       
H           78.15467    -46.01513   38.49956    
H           80.44       -48.1       41.45       
H           79.08       -47.09      41.94       
H           78.77334    -48.79499   41.40629    
H           82.0        -50.76      34.05       
H           80.79       -52.14      33.78       
H           81.5035     -51.89081   35.35925    
H           80.36       -48.43      33.82       
H           78.78       -48.9       34.03       
H           79.70002    -49.55419   32.66746    
H           82.38       -43.25      41.6        
H           76.27       -53.58      32.34       
S           84.59       -44.49      38.94       
C           82.96       -43.78      40.82       
C           84.08       -43.35      40.23       
C           71.58       -56.33      32.43       
C           72.44       -55.57      31.55       
C           71.86       -56.15      33.73       
N           72.3        -55.65      30.21       
N           74.07       -54.11      31.02       
S           73.43       -54.66      29.58       
H           73.11       -55.28      35.29       
H           71.36       -56.81      34.47       
C           72.9        -55.31      34.19       
C           73.44       -54.75      32.03       
C           73.64       -54.51      33.39       
C           60.66       -68.39      30.03       
C           61.44       -68.2       31.11       
S           61.11       -67.36      28.67       
C           66.04       -64.14      31.42       
C           65.33       -64.2       30.22       
C           65.62       -63.25      29.21       
C           66.75       -62.34      29.43       
C           67.41       -62.35      30.63       
C           67.15       -63.3       31.67       
C           66.98       -61.02      28.64       
C           68.12       -60.43      29.48       
C           68.24       -61.17      30.68       
C           65.36       -65.04      32.4        
C           64.3        -65.72      31.54       
C           64.28       -65.17      30.24       
C           68.75       -59.24      29.5        
C           69.33       -58.66      30.64       
C           69.49       -59.46      31.78       
C           68.97       -60.77      31.81       
C           63.42       -66.74      31.91       
C           62.48       -67.21      30.94       
C           62.41       -66.6       29.63       
C           63.2        -65.5       29.33       
C           67.22       -61.46      27.16       
C           65.71       -60.01      28.68       
C           66.27       -66.13      33.02       
C           64.57       -64.24      33.47       
H           67.52       -63.29      32.68       
H           64.92       -63.14      28.34       
H           63.48       -67.36      32.88       
H           63.33       -65.14      28.35       
H           68.86       -58.66      28.64       
H           69.04       -61.34      32.71       
H           67.18       -60.63      26.45       
H           66.48       -62.17      26.74       
H           68.21694    -61.83912   26.93534    
H           64.87       -60.55      28.18       
H           65.84       -59.05      28.06       
H           65.48292    -59.79002   29.72314    
H           65.27       -63.85      34.2        
H           64.01       -65.01      34.06       
H           63.93884    -63.47013   33.02611    
H           66.9        -65.73      33.83       
H           65.82       -67.06      33.5        
H           67.00165    -66.52779   32.31676    
H           70.01       -56.65      30.04       
H           61.21       -68.64      32.06       
S           70.35       -58.57      33.03       
C           69.96       -57.39      30.75       
C           70.54       -57.21      32.01       
C           56.82       -70.62      29.72       
C           57.11       -69.79      30.79       
C           57.82       -70.65      28.78       
N           56.24       -69.55      31.79       
N           58.29       -68.31      32.02       
S           56.92       -68.48      32.85       
H           59.67       -69.94      28.01       
H           57.79       -71.33      27.91       
C           58.99       -69.83      28.89       
C           58.36       -69.06      30.95       
C           59.36       -69.07      29.97       
C           43.38       -80.03      27.08       
C           44.63       -80.62      27.04       
S           43.4        -78.59      27.99       
C           49.66       -77.37      28.48       
C           48.4        -76.78      28.76       
C           48.42       -75.5       29.41       
C           49.64       -74.84      29.52       
C           50.86       -75.35      29.04       
C           50.85       -76.66      28.48       
C           49.84       -73.39      29.92       
C           51.32       -73.11      29.56       
C           51.89       -74.29      29.03       
C           49.42       -78.77      27.96       
C           47.91       -78.93      27.95       
C           47.32       -77.68      28.41       
C           52.0        -71.94      29.81       
C           53.32       -72.0       29.47       
C           53.93       -73.18      28.96       
C           53.22       -74.32      28.68       
C           47.03       -80.0       27.59       
C           45.64       -79.75      27.54       
C           45.16       -78.53      28.04       
C           45.94       -77.46      28.5        
C           48.68       -72.62      29.15       
C           49.61       -73.27      31.44       
C           50.0        -78.95      26.56       
C           50.18       -79.64      28.98       
H           51.77       -77.11      28.13       
H           47.48       -74.98      29.61       
H           47.38       -80.98      27.18       
H           45.54       -76.56      28.84       
H           51.55       -71.03      30.3        
H           53.71       -75.25      28.37       
H           47.73       -72.71      29.75       
H           48.5        -73.1       28.18       
H           48.85364    -71.56428   28.94164    
H           48.64       -73.48      31.81       
H           49.87       -72.24      31.75       
H           50.33243    -73.88514   31.97646    
H           51.26       -79.61      28.8        
H           50.12       -79.04      29.93       
H           49.78731    -80.63243   29.20133    
H           49.9        -79.96      26.38       
H           51.1        -78.72      26.64       
H           49.4935     -78.37315   25.78618    
H           54.1        -70.06      30.25       
H           44.89       -81.61      26.68       
S           55.64       -72.97      28.75       
C           54.29       -70.99      29.82       
C           55.51       -71.32      29.41       
C           39.54       -81.38      25.13       
C           40.75       -82.09      25.01       
C           39.73       -80.2       25.86       
N           40.8        -83.21      24.31       
N           42.95       -82.65      25.37       
S           42.31       -83.81      24.44       
H           40.89       -78.89      27.16       
H           38.98       -79.49      25.94       
C           40.96       -79.82      26.5        
C           42.08       -81.65      25.57       
C           42.15       -80.5       26.41       
H           53.91       6.72        117.81      
H           38.69       -81.56      24.55       
