612

C           39.22       78.31       50.1        
C           39.16       77.9        48.86       
S           39.07       80.07       50.25       
C           39.57       81.48       44.15       
C           39.47       82.2        45.36       
C           39.74       83.59       45.59       
C           39.83       84.35       44.43       
C           39.76       83.75       43.17       
C           39.68       82.31       43.01       
C           40.13       85.86       44.3        
C           40.08       86.09       42.79       
C           39.78       84.86       42.14       
C           39.3        79.99       44.26       
C           39.03       79.94       45.74       
C           39.26       81.2        46.39       
C           40.27       87.3        42.19       
C           40.18       87.24       40.84       
C           40.05       86.03       40.15       
C           39.79       84.87       40.74       
C           38.94       78.8        46.51       
C           38.96       78.96       47.92       
C           39.03       80.21       48.5        
C           39.01       81.33       47.73       
C           39.16       86.81       45.09       
C           41.64       86.09       44.6        
C           38.08       79.59       43.39       
C           40.5        79.11       43.9        
H           39.74       81.83       42.03       
H           39.58       83.96       46.6        
H           38.73       77.84       46.17       
H           39.17       82.3        48.23       
H           40.51       88.26       42.6        
H           39.74       83.97       40.16       
H           39.4        86.77       46.2        
H           39.39       87.81       44.74       
H           38.10315    86.5644     44.9858     
H           42.24       85.54       43.92       
H           42.05       87.12       44.52       
H           41.94892    85.66613    45.55551    
H           40.25       78.06       44.07       
H           41.3        79.24       44.57       
H           40.84708    79.22816    42.87352    
H           38.34       79.5        42.33       
H           37.75       78.67       43.75       
H           37.20993    80.24255    43.46251    
H           40.4        89.37       40.24       
H           39.22       76.9        48.46       
S           40.26       86.31       38.46       
C           40.36       88.33       39.92       
C           40.48       88.03       38.63       
C           40.02       76.15       53.78       
C           39.98       75.46       52.52       
C           39.95       77.5        53.68       
N           40.19       74.14       52.33       
N           39.72       75.36       50.24       
S           40.18       73.86       50.75       
H           39.46       79.32       52.58       
H           39.96       78.13       54.59       
C           39.65       78.17       52.49       
C           39.74       76.18       51.3        
C           39.49       77.53       51.31       
C           45.24       70.74       68.7        
C           44.89       72.03       68.36       
S           44.97       69.72       67.31       
C           42.35       73.82       63.05       
C           42.56       72.4        63.19       
C           42.36       71.52       62.1        
C           41.85       72.07       60.93       
C           41.67       73.46       60.81       
C           41.9        74.34       61.86       
C           41.64       71.45       59.61       
C           41.08       72.67       58.78       
C           41.1        73.87       59.5        
C           42.47       74.44       64.46       
C           43.13       73.35       65.32       
C           43.17       72.17       64.55       
C           40.62       72.65       57.53       
C           40.47       73.89       56.79       
C           40.64       75.11       57.49       
C           40.85       75.1        58.86       
C           43.62       73.37       66.56       
C           44.24       72.21       67.11       
C           44.24       71.04       66.38       
C           43.77       70.97       65.07       
C           42.87       70.84       59.0        
C           40.43       70.41       59.66       
C           43.4        75.7        64.4        
C           41.14       74.73       65.2        
H           41.73       75.4        61.79       
H           42.55       70.49       62.21       
H           43.8        74.37       67.07       
H           43.76       70.07       64.49       
H           40.6        71.73       56.98       
H           40.99       75.99       59.42       
H           43.46       70.32       59.8        
H           42.62       70.18       58.2        
H           43.57905    71.56367    58.59796    
H           39.66       70.87       60.2        
H           40.18       70.14       58.66       
H           40.66457    69.45792    60.13604    
H           41.29       75.07       66.21       
H           40.68       73.78       65.15       
H           40.43095    75.45367    64.79796    
H           42.99       76.59       63.98       
H           43.6        75.92       65.45       
H           44.35693    75.55003    63.90011    
H           40.0        73.31       54.79       
H           45.06       72.79       69.06       
S           40.31       76.5        56.44       
C           40.16       74.11       55.39       
C           40.14       75.45       55.08       
C           47.68       68.97       71.9        
C           47.61       70.38       71.81       
C           46.87       68.29       71.06       
N           48.27       71.23       72.64       
N           46.9        72.37       70.91       
S           47.98       72.74       72.14       
H           45.63       68.14       69.29       
H           46.9        67.2        70.96       
C           46.2        68.82       69.96       
C           46.86       71.02       70.76       
C           46.07       70.22       69.82       
C           54.6        59.15       83.41       
C           53.95       58.74       82.29       
S           54.55       60.92       83.42       
C           51.14       62.38       78.29       
C           52.02       62.97       79.21       
C           52.28       64.37       79.15       
C           51.6        65.09       78.19       
C           50.8        64.44       77.24       
C           50.57       63.07       77.27       
C           51.56       66.6        77.96       
C           50.52       66.65       76.83       
C           50.26       65.37       76.27       
C           51.11       60.82       78.52       
C           51.87       60.71       79.86       
C           52.43       62.01       80.18       
C           49.99       67.78       76.2        
C           49.36       67.64       74.95       
C           49.25       66.36       74.41       
C           49.64       65.21       75.06       
C           52.26       59.61       80.57       
C           53.22       59.78       81.6        
C           53.64       61.07       81.95       
C           53.33       62.23       81.23       
C           51.07       67.31       79.27       
C           52.78       67.31       77.38       
C           49.73       60.39       78.59       
C           51.95       60.01       77.51       
H           50.05       62.68       76.38       
H           52.86       64.91       79.93       
H           51.78       58.65       80.41       
H           53.77       63.25       81.5        
H           50.17       68.76       76.64       
H           49.49       64.14       74.74       
H           51.86       67.21       80.06       
H           51.05       68.36       79.07       
H           50.17543    66.88033    79.72081    
H           52.76       66.95       76.32       
H           52.54       68.36       77.38       
H           53.68632    67.22436    77.97946    
H           51.41       59.33       76.91       
H           52.75       59.33       77.97       
H           52.68376    60.58703    76.94721    
H           49.13       60.72       77.69       
H           49.62       59.32       78.64       
H           49.24197    60.80023    79.47411    
H           48.78       69.63       74.54       
H           53.89       57.74       82.05       
S           48.42       66.51       72.9        
C           48.85       68.66       74.16       
C           48.3        68.26       72.97       
C           56.77       57.4        86.85       
C           56.32       56.62       85.71       
C           56.44       58.72       86.73       
N           56.65       55.3        85.52       
N           55.48       56.31       83.56       
S           56.06       54.84       84.07       
H           55.88       60.45       85.49       
H           56.73       59.36       87.58       
C           56.0        59.34       85.49       
C           55.73       57.2        84.53       
C           55.48       58.58       84.4        
C           65.45       51.86       99.96       
C           65.65       51.48       98.69       
S           64.05       52.95       100.05      
C           62.12       53.46       94.04       
C           61.64       53.84       95.32       
C           60.48       54.62       95.49       
C           59.77       55.02       94.3        
C           60.22       54.49       93.07       
C           61.39       53.73       92.96       
C           58.62       56.01       94.2        
C           58.37       55.94       92.66       
C           59.36       55.09       92.03       
C           63.53       52.9        94.14       
C           63.56       52.58       95.58       
C           62.59       53.28       96.32       
C           57.44       56.61       91.82       
C           57.59       56.55       90.4        
C           58.57       55.74       89.9        
C           59.57       55.11       90.67       
C           64.57       51.85       96.37       
C           64.69       52.05       97.75       
C           63.71       52.87       98.38       
C           62.68       53.5        97.69       
C           57.39       55.52       94.98       
C           58.9        57.45       94.55       
C           63.71       51.6        93.38       
C           64.56       53.99       93.63       
H           61.79       53.48       91.94       
H           60.17       55.03       96.51       
H           65.29       51.23       95.85       
H           62.0        54.19       98.19       
H           56.63       57.13       92.23       
H           60.43       54.68       90.21       
H           57.66       55.38       95.99       
H           56.54       56.23       94.95       
H           57.01892    54.55661    94.63032    
H           59.07       57.96       93.56       
H           57.93       57.89       94.99       
H           59.73465    57.59981    95.23484    
H           64.82       53.67       92.7        
H           65.36       54.1        94.21       
H           64.21366    55.02196    93.57345    
H           63.64       51.82       92.27       
H           64.69       51.1        93.6        
H           62.93927    50.87331    93.63691    
H           56.2        58.02       89.54       
H           66.49       50.96       98.37       
S           58.48       55.75       88.13       
C           56.93       57.27       89.39       
C           57.13       56.8        88.1        
C           68.49       52.53       103.2       
C           68.87       51.83       102.01      
C           67.15       52.84       103.25      
N           70.14       51.49       101.58      
N           68.36       50.97       99.9        
S           70.0        50.82       100.05      
H           65.12       53.04       102.46      
H           66.84       53.57       103.91      
C           66.16       52.6        102.27      
C           67.85       51.51       100.99      
C           66.5        51.96       101.05      
C           77.92       61.96       112.99      
C           76.73       61.41       113.48      
S           78.24       61.41       111.4       
C           73.48       57.58       110.08      
C           74.6        58.1        109.51      
C           74.84       57.94       108.1       
C           73.97       57.29       107.28      
C           72.83       56.72       107.91      
C           72.57       56.81       109.35      
C           74.06       57.1        105.79      
C           72.78       56.29       105.6       
C           72.16       55.98       106.86      
C           73.25       58.15       111.5       
C           74.58       58.91       111.6       
C           75.36       58.86       110.45      
C           72.31       55.6        104.43      
C           71.22       54.77       104.56      
C           70.66       54.56       105.84      
C           71.18       55.03       107.0       
C           75.0        59.62       112.69      
C           76.17       60.44       112.59      
C           76.84       60.39       111.37      
C           76.39       59.63       110.24      
C           74.01       58.46       105.1       
C           75.27       56.28       105.34      
C           72.08       59.19       111.54      
C           73.3        57.05       112.59      
H           71.73       56.29       109.85      
H           75.67       58.47       107.62      
H           74.28       59.74       113.49      
H           76.98       59.64       109.35      
H           72.68       55.83       103.46      
H           70.66       54.82       107.9       
H           74.73       58.39       104.32      
H           74.31       59.29       105.75      
H           73.01758    58.7117     104.72604   
H           76.22       56.83       105.64      
H           75.23       56.05       104.23      
H           75.35524    55.34945    105.90117   
H           73.4        57.4        113.68      
H           74.27       56.46       112.52      
H           72.43039    56.39422    112.63277   
H           71.07       58.72       111.58      
H           72.12       59.79       112.44      
H           72.11001    59.86516    110.6848    
H           71.01       53.82       102.55      
H           76.28       61.7        114.42      
S           69.19       53.59       105.67      
C           70.62       53.92       103.53      
C           69.52       53.25       103.94      
C           79.98       65.66       113.74      
C           78.8        65.38       114.5       
C           80.56       64.61       113.03      
N           77.99       66.27       115.05      
N           77.0        64.03       114.96      
S           76.6        65.52       115.48      
H           80.34       62.67       112.0       
H           81.36       64.78       112.32      
C           79.87       63.37       112.78      
C           78.19       64.06       114.32      
C           78.69       63.03       113.47      
C           80.74       81.02       107.54      
C           81.02       79.79       106.93      
S           80.87       80.78       109.31      
C           81.64       74.39       109.72      
C           81.55       75.48       110.66      
C           81.45       75.3        112.05      
C           81.37       73.94       112.53      
C           81.63       72.86       111.56      
C           81.76       73.12       110.21      
C           80.85       73.36       113.81      
C           81.05       71.83       113.57      
C           81.54       71.56       112.23      
C           81.36       74.89       108.29      
C           81.26       76.39       108.45      
C           81.31       76.7        109.81      
C           80.6        70.71       114.3       
C           80.74       69.4        113.79      
C           81.29       69.17       112.47      
C           81.75       70.27       111.67      
C           81.12       77.34       107.45      
C           81.05       78.7        107.81      
C           81.04       79.02       109.18      
C           81.13       78.03       110.13      
C           81.69       73.67       115.1       
C           79.36       73.62       114.11      
C           82.5        74.46       107.39      
C           80.04       74.37       107.75      
H           81.85       72.35       109.48      
H           81.28       76.16       112.68      
H           81.1        77.11       106.42      
H           81.03       78.33       111.22      
H           80.16       70.91       115.23      
H           82.13       70.16       110.69      
H           81.48       74.71       115.37      
H           81.16       73.22       115.92      
H           82.75428    73.44741    115.02348   
H           78.82       72.91       113.47      
H           79.19       73.36       115.11      
H           79.05556    74.65653    113.96503   
H           80.13       73.53       107.04      
H           79.64       75.2        107.17      
H           79.32055    74.13018    108.53293   
H           82.5        73.38       107.31      
H           82.3        74.85       106.41      
H           83.46713    74.83969    107.71954   
H           79.71       68.06       115.29      
H           81.16       79.74       105.91      
S           81.07       67.47       112.04      
C           80.26       68.16       114.33      
C           80.43       67.03       113.56      
C           80.26       85.34       106.52      
C           80.8        84.42       105.54      
C           79.84       84.75       107.67      
N           81.1        84.71       104.26      
N           81.49       82.3        104.82      
S           81.65       83.37       103.6       
H           79.79       83.15       108.98      
H           79.39       85.37       108.47      
C           80.05       83.38       107.98      
C           80.95       82.97       105.86      
C           80.63       82.44       107.16      
C           80.35       101.16      102.2       
C           81.11       100.14      101.75      
S           79.44       100.66      103.68      
C           81.54       94.65       104.38      
C           80.61       95.54       105.07      
C           79.75       95.12       106.12      
C           79.82       93.72       106.43      
C           80.74       92.91       105.69      
C           81.63       93.41       104.72      
C           78.91       92.82       107.25      
C           79.54       91.46       107.05      
C           80.56       91.55       106.08      
C           82.2        95.38       103.19      
C           81.67       96.8        103.36      
C           80.66       96.84       104.36      
C           79.21       90.19       107.5       
C           79.69       89.02       106.9       
C           80.78       89.15       105.94      
C           81.21       90.39       105.52      
C           81.93       97.82       102.5       
C           81.08       98.94       102.55      
C           80.12       99.02       103.58      
C           79.97       98.02       104.56      
C           78.82       93.27       108.77      
C           77.46       92.79       106.69      
C           83.72       95.46       103.36      
C           81.88       94.73       101.84      
H           82.37       92.73       104.28      
H           78.97       95.69       106.59      
H           82.75       97.78       101.79      
H           79.2        97.96       105.29      
H           78.39       90.22       108.28      
H           81.96       90.53       104.75      
H           77.96       93.0        109.36      
H           78.8        94.39       108.88      
H           79.70489    92.94887    109.31949   
H           77.26       93.81       106.24      
H           76.69       92.61       107.43      
H           77.24508    92.10943    105.86615   
H           82.38       95.33       101.09      
H           80.85       94.75       101.62      
H           82.26766    93.72208    101.69198   
H           84.26       94.56       103.2       
H           84.09       96.24       102.69      
H           84.06602    95.96137    104.26388   
H           78.72       87.29       107.91      
H           81.83       100.23      100.91      
S           81.21       87.61       105.23      
C           79.38       87.63       107.14      
C           80.11       86.82       106.32      
C           80.54       105.0       100.34      
C           79.45       104.76      101.27      
C           81.44       104.03      100.14      
N           78.28       105.44      101.41      
N           78.14       103.27      102.49      
S           77.34       104.65      102.47      
H           82.09       102.07      100.64      
H           82.39       104.21      99.69       
C           81.29       102.77      100.73      
C           79.28       103.45      101.81      
C           80.31       102.49      101.66      
C           83.54       117.13      89.44       
C           84.34       116.13      89.73       
S           82.16       117.14      90.44       
C           83.63       112.42      94.54       
C           82.54       113.26      94.24       
C           81.34       113.2       95.07       
C           81.2        112.15      96.05       
C           82.31       111.24      96.11       
C           83.52       111.37      95.42       
C           80.04       111.71      96.88       
C           80.68       110.56      97.61       
C           81.91       110.16      97.01       
C           84.69       112.51      93.42       
C           84.17       113.71      92.58       
C           82.91       114.14      93.12       
C           80.0        109.67      98.43       
C           80.58       108.43      98.69       
C           81.73       107.98      98.0        
C           82.4        108.82      97.09       
C           84.59       114.24      91.38       
C           83.91       115.32      90.84       
C           82.73       115.77      91.36       
C           82.2        115.16      92.51       
C           79.55       112.83      97.84       
C           78.87       111.08      96.12       
C           86.06       112.94      94.04       
C           84.85       111.2       92.62       
H           84.37       110.72      95.49       
H           80.54       113.94      94.85       
H           85.57       114.07      90.98       
H           81.27       115.42      92.98       
H           79.1        109.91      98.92       
H           83.35       108.56      96.65       
H           79.12       113.62      97.24       
H           78.7        112.37      98.4        
H           80.32868    113.20842   98.50224    
H           79.14       110.08      95.58       
H           78.1        110.88      96.88       
H           78.4973     111.6707    95.28318    
H           85.44       110.49      93.15       
H           85.52       111.41      91.8        
H           83.93678    110.76856   92.21013    
H           86.44       112.04      94.43       
H           86.7        113.14      93.24       
H           85.98946    113.68768   94.83       
H           79.16       107.54      100.18      
H           85.25       115.84      89.27       
S           82.0        106.32      98.38       
C           80.02       107.42      99.55       
C           80.72       106.28      99.58       
C           83.69       119.84      85.99       
C           84.29       118.58      85.9        
C           83.09       120.08      87.18       
N           84.95       118.12      84.87       
N           85.08       116.54      86.84       
S           85.45       116.58      85.26       
H           82.89       119.68      89.27       
H           82.65       121.08      87.42       
C           83.14       119.21      88.27       
C           84.43       117.71      87.09       
C           83.67       117.94      88.24       
C           83.18       133.0       75.74       
C           83.36       133.05      77.07       
S           83.26       131.32      75.19       
C           84.34       128.25      80.79       
C           84.14       127.93      79.43       
C           84.21       126.62      78.96       
C           84.19       125.59      79.91       
C           84.14       125.89      81.27       
C           84.37       127.19      81.76       
C           84.04       124.09      79.63       
C           83.9        123.55      81.08       
C           83.87       124.61      82.04       
C           84.14       129.75      80.98       
C           83.84       130.17      79.52       
C           83.88       129.13      78.6        
C           83.88       122.21      81.49       
C           83.78       121.95      82.88       
C           83.76       123.02      83.74       
C           83.76       124.36      83.36       
C           83.67       131.48      79.13       
C           83.58       131.77      77.74       
C           83.47       130.7       76.87       
C           83.55       129.44      77.3        
C           82.84       123.77      78.76       
C           85.42       123.62      79.03       
C           82.93       130.19      81.87       
C           85.43       130.45      81.37       
H           84.53       127.48      82.8        
H           84.1        126.38      77.93       
H           83.68       132.27      79.88       
H           83.33       128.59      76.61       
H           83.88       121.43      80.85       
H           83.67       125.11      84.1        
H           82.91       122.84      78.24       
H           82.81       124.55      77.98       
H           81.9385     123.66352   79.36337    
H           85.67       124.29      78.23       
H           85.29       122.66      78.48       
H           86.24831    123.59168   79.73796    
H           85.08       131.37      81.89       
H           86.01       130.73      80.47       
H           86.04642    129.89809   82.0796     
H           83.03       129.93      82.9        
H           82.88       131.31      81.89       
H           82.00049    129.7738    81.48155    
H           83.62       119.66      83.06       
H           83.41       133.92      77.68       
S           83.7        122.48      85.37       
C           83.68       120.64      83.52       
C           83.62       120.81      84.93       
C           82.84       135.91      72.47       
C           83.38       136.35      73.73       
C           82.44       134.62      72.47       
N           83.88       137.57      73.9        
N           84.15       136.06      75.94       
S           84.35       137.65      75.47       
H           82.16       132.83      73.51       
H           82.01       134.16      71.6        
C           82.57       133.77      73.58       
C           83.5        135.45      74.89       
C           83.12       134.07      74.78       
C           79.46       144.7       58.53       
C           78.58       143.87      59.07       
S           80.82       144.98      59.63       
C           79.51       140.8       64.2        
C           80.47       141.76      63.88       
C           81.63       142.0       64.62       
C           81.84       141.11      65.7        
C           80.84       140.11      66.06       
C           79.66       139.98      65.31       
C           82.96       141.13      66.74       
C           82.45       140.13      67.77       
C           81.26       139.44      67.28       
C           78.33       140.77      63.27       
C           78.83       141.85      62.26       
C           80.07       142.43      62.63       
C           83.13       139.71      68.94       
C           82.68       138.51      69.62       
C           81.51       137.85      69.11       
C           80.81       138.27      67.97       
C           78.31       142.3       61.06       
C           79.06       143.17      60.25       
C           80.29       143.74      60.74       
C           80.83       143.36      61.97       
C           84.18       140.45      66.13       
C           83.19       142.61      67.29       
C           78.2        139.38      62.53       
C           77.06       141.02      64.21       
H           78.97       139.19      65.53       
H           82.37       142.65      64.31       
H           77.4        141.88      60.67       
H           81.81       143.74      62.33       
H           84.03       140.27      69.28       
H           79.93       137.7       67.55       
H           84.37       140.84      65.06       
H           83.85       139.42      66.2        
H           85.13567    140.58232   66.63724    
H           83.69       143.17      66.48       
H           83.81       142.57      68.15       
H           82.27849    143.06575   67.6767     
H           76.63       140.09      64.57       
H           77.41       141.51      65.11       
H           76.20953    141.42466   63.66131    
H           78.31       138.57      63.29       
H           79.05       139.2       61.85       
H           77.28922    139.22009   61.95294    
H           83.9        138.34      71.59       
H           77.7        143.57      58.51       
S           81.22       136.44      70.15       
C           83.16       137.9       70.91       
C           82.55       136.78      71.28       
C           79.36       147.28      54.9        
C           78.34       146.32      55.21       
C           80.36       147.26      55.83       
N           77.28       145.99      54.32       
N           77.45       144.48      56.33       
S           76.49       144.71      54.98       
H           81.28       146.53      57.62       
H           81.27       147.84      55.73       
C           80.4        146.43      56.96       
C           78.42       145.41      56.33       
C           79.41       145.52      57.33       
H           40.97       88.62       37.93       
H           79.21       148.17      54.34       
