612

C           30.61       18.5        72.96       
C           29.31       18.66       72.46       
S           31.35       16.93       72.48       
C           27.13       15.29       67.98       
C           28.3        14.83       68.53       
C           29.12       13.88       67.95       
C           28.7        13.44       66.72       
C           27.53       13.86       66.06       
C           26.67       14.77       66.79       
C           29.39       12.36       65.81       
C           28.48       12.36       64.56       
C           27.37       13.22       64.79       
C           26.63       16.53       68.75       
C           27.67       16.62       69.84       
C           28.63       15.6        69.66       
C           28.45       11.54       63.45       
C           27.39       11.65       62.45       
C           26.39       12.57       62.69       
C           26.27       13.29       63.89       
C           27.81       17.59       70.8        
C           28.99       17.68       71.5        
C           29.93       16.64       71.42       
C           29.75       15.61       70.49       
C           30.84       12.76       65.47       
C           29.36       10.87       66.3        
C           26.71       17.86       67.93       
C           25.2        16.33       69.28       
H           25.71       15.08       66.35       
H           30.01       13.51       68.47       
H           27.09       18.35       70.77       
H           30.46       14.86       70.31       
H           29.24       10.84       63.35       
H           25.41       13.8        64.17       
H           31.41       12.65       66.42       
H           31.28       12.06       64.79       
H           30.9499     13.79311    65.14029    
H           28.31       10.67       66.28       
H           29.49       10.22       65.49       
H           29.78267    10.65508    67.28146    
H           24.45       16.43       68.55       
H           24.99       17.14       70.04       
H           25.08226    15.41579    69.86177    
H           25.95       17.78       67.14       
H           26.43       18.73       68.49       
H           27.69865    18.00725    67.49527    
H           28.01       10.15       60.96       
H           28.61       19.41       72.9        
S           25.27       12.52       61.29       
C           27.29       10.93       61.29       
C           26.26       11.31       60.52       
C           32.4        20.82       76.24       
C           31.21       21.34       75.56       
C           32.97       19.7        75.67       
N           30.5        22.43       75.79       
N           29.65       21.28       73.84       
S           29.33       22.6        74.69       
H           32.9        18.09       74.36       
H           33.79       19.19       76.16       
C           32.38       18.99       74.61       
C           30.7        20.65       74.35       
C           31.27       19.37       73.93       
C           39.8        20.69       90.02       
C           40.21       20.0        88.88       
S           38.61       21.95       89.78       
C           38.4        22.27       83.53       
C           37.57       22.63       84.64       
C           36.35       23.36       84.51       
C           35.83       23.53       83.27       
C           36.56       23.07       82.15       
C           37.89       22.54       82.3        
C           34.5        24.07       82.78       
C           34.4        23.67       81.31       
C           35.68       23.12       80.98       
C           39.36       21.14       83.88       
C           39.11       21.1        85.45       
C           38.22       22.14       85.81       
C           33.33       23.46       80.46       
C           33.51       22.62       79.3        
C           34.84       22.13       78.98       
C           35.98       22.45       79.79       
C           39.81       20.42       86.34       
C           39.62       20.68       87.71       
C           38.69       21.65       88.08       
C           37.97       22.4        87.14       
C           33.31       23.48       83.64       
C           34.36       25.61       82.79       
C           38.91       19.83       83.19       
C           40.78       21.7        83.55       
H           38.37       22.19       81.36       
H           35.78       23.63       85.41       
H           40.62       19.79       85.95       
H           37.29       23.1        87.49       
H           32.34       23.94       80.74       
H           36.9        21.99       79.54       
H           33.41       23.83       84.68       
H           32.35       23.93       83.29       
H           33.23087    22.39373    83.59684    
H           34.77       25.92       81.85       
H           33.31       25.93       82.69       
H           34.81667    26.19617    83.58747    
H           41.17       21.37       82.57       
H           41.43       21.44       84.39       
H           40.85911    22.78596    83.49966    
H           38.94       20.07       82.14       
H           39.57       19.03       83.38       
H           37.919      19.52396    83.52519    
H           31.42       22.28       78.49       
H           40.99       19.24       88.8        
S           34.74       21.13       77.57       
C           32.47       22.19       78.32       
C           33.04       21.41       77.4        
C           41.37       19.65       93.92       
C           40.63       18.66       93.15       
C           41.3        20.91       93.39       
N           40.47       17.4        93.54       
N           39.43       17.95       91.34       
S           39.56       16.7        92.37       
H           40.83       22.27       91.85       
H           41.6        21.69       93.97       
C           40.8        21.23       92.13       
C           40.05       19.02       91.91       
C           40.14       20.39       91.35       
C           54.34       18.19       103.26      
C           53.84       19.3        102.72      
S           53.08       17.03       103.42      
C           48.32       19.83       100.47      
C           48.62       18.54       100.99      
C           47.75       17.48       100.79      
C           46.55       17.69       100.13      
C           46.36       18.96       99.62       
C           47.15       20.08       99.83       
C           45.35       16.81       99.85       
C           44.62       17.66       98.84       
C           45.19       18.96       98.78       
C           49.35       20.91       100.87      
C           50.33       20.01       101.58      
C           49.83       18.69       101.76      
C           43.55       17.33       97.91       
C           43.06       18.36       97.06       
C           43.71       19.64       97.06       
C           44.72       19.96       97.93       
C           51.64       20.32       101.99      
C           52.42       19.29       102.52      
C           51.86       18.0        102.76      
C           50.56       17.73       102.47      
C           45.79       15.49       99.2        
C           44.46       16.55       101.13      
C           49.94       21.64       99.66       
C           48.75       21.85       101.95      
H           46.92       20.98       99.42       
H           47.85       16.49       101.26      
H           52.23       21.24       101.72      
H           50.15       16.79       102.66      
H           43.08       16.4        97.88       
H           45.28       20.84       97.89       
H           46.43       14.96       99.83       
H           44.84       14.88       99.02       
H           46.43634    15.6151     98.33127    
H           44.14       17.55       101.26      
H           43.6        15.89       100.88      
H           44.93431    16.29847    102.07861   
H           49.59       22.51       102.41      
H           48.4        21.31       102.77      
H           47.89672    22.44019    101.6158    
H           49.12       22.09       99.0        
H           50.47       22.49       100.01      
H           50.55999    21.00608    99.02608    
H           41.57       17.28       95.73       
H           54.49       20.18       102.56      
S           43.09       20.61       95.73       
C           42.08       18.23       95.99       
C           41.96       19.37       95.19       
C           58.17       16.73       104.6       
C           58.1        17.67       103.56      
C           56.95       16.36       105.13      
N           59.11       18.12       102.8       
N           56.92       18.9        101.93      
S           58.49       18.93       101.56      
H           54.8        16.49       105.31      
H           57.0        15.74       106.02      
C           55.65       16.85       104.7       
C           56.8        18.11       103.04      
C           55.6        17.75       103.7       
C           73.21       11.86       108.55      
C           72.91       13.19       108.38      
S           71.79       10.85       108.73      
C           67.16       15.03       107.85      
C           67.42       13.63       107.95      
C           66.42       12.64       107.86      
C           65.14       13.07       107.48      
C           64.91       14.45       107.41      
C           65.9        15.44       107.56      
C           63.88       12.34       107.23      
C           62.95       13.5        106.77      
C           63.64       14.76       106.86      
C           68.43       15.86       107.93      
C           69.45       14.65       107.89      
C           68.84       13.41       107.98      
C           61.67       13.49       106.37      
C           61.03       14.72       105.97      
C           61.8        15.86       105.9       
C           63.1        15.94       106.33      
C           70.81       14.57       107.95      
C           71.5        13.37       108.22      
C           70.78       12.16       108.33      
C           69.44       12.17       108.22      
C           64.04       11.34       106.03      
C           63.16       11.69       108.44      
C           68.51       16.86       106.78      
C           68.59       16.55       109.34      
H           65.59       16.52       107.52      
H           66.68       11.61       107.82      
H           71.42       15.43       107.84      
H           68.89       11.27       108.39      
H           61.06       12.59       106.31      
H           63.62       16.85       106.5       
H           64.75       10.55       106.3       
H           63.12       10.69       105.98      
H           64.39298    11.8314     105.12334   
H           62.9        12.54       109.08      
H           62.19       11.27       108.24      
H           63.77942    11.07778    109.09544   
H           69.0        17.58       109.27      
H           69.26       15.88       109.97      
H           67.65529    16.6927     109.88227   
H           67.65       17.58       106.7       
H           69.51       17.29       107.02      
H           68.64545    16.3396     105.83188   
H           58.98       14.14       105.49      
H           73.7        13.94       108.39      
S           60.78       17.22       105.46      
C           59.7        14.9        105.41      
C           59.42       16.2        105.01      
C           77.05       9.54        108.26      
C           77.06       10.93       108.61      
C           75.8        9.02        108.3       
N           78.16       11.65       108.7       
N           76.08       13.01       109.02      
S           77.73       13.21       108.93      
H           73.69       9.18        108.32      
H           75.58       7.96        107.92      
C           74.62       9.76        108.5       
C           75.8        11.69       108.85      
C           74.49       11.14       108.7       
C           89.2        -1.19       104.43      
C           88.21       -1.34       105.32      
S           89.06       0.35        103.64      
C           83.6        2.53        106.03      
C           84.59       2.98        105.18      
C           84.57       4.35        104.76      
C           83.59       5.25        105.27      
C           82.58       4.66        106.11      
C           82.56       3.31        106.47      
C           83.62       6.8         105.56      
C           82.32       6.96        106.31      
C           81.73       5.7         106.57      
C           83.9        1.2         106.67      
C           85.14       0.85        105.8       
C           85.58       1.92        104.99      
C           81.65       8.1         106.67      
C           80.34       7.98        107.15      
C           79.77       6.77        107.4       
C           80.45       5.56        107.16      
C           85.97       -0.2        105.93      
C           87.22       -0.24       105.29      
C           87.58       0.79        104.4       
C           86.68       1.85        104.19      
C           84.77       7.29        106.45      
C           83.47       7.65        104.29      
C           84.19       1.48        108.17      
C           82.71       0.25        106.35      
H           81.67       2.85        107.02      
H           85.38       4.74        104.18      
H           85.72       -0.96       106.64      
H           86.89       2.72        103.49      
H           82.07       9.15        106.63      
H           79.98       4.67        107.43      
H           85.79       7.05        106.04      
H           84.8        8.39        106.55      
H           84.67569    6.86925     107.45109   
H           82.54       7.24        103.73      
H           83.28       8.71        104.55      
H           84.31443    7.61452     103.60168   
H           81.8        0.82        106.51      
H           82.77       -0.64       106.99      
H           82.72421    -0.21168    105.36271   
H           83.24       1.82        108.64      
H           84.9        2.3         108.28      
H           84.48415    0.58319     108.71526   
H           79.83       10.14       107.43      
H           88.03       -2.21       105.95      
S           78.03       6.96        107.83      
C           79.49       9.15        107.52      
C           78.24       8.73        107.84      
C           92.73       -3.7        103.34      
C           91.85       -4.08       104.4       
C           92.32       -2.53       102.68      
N           92.05       -5.09       105.26      
N           89.97       -3.85       105.77      
S           90.7        -5.26       106.2       
H           90.94       -0.93       102.42      
H           92.99       -2.16       101.88      
C           91.1        -1.8        103.03      
C           90.65       -3.33       104.76      
C           90.27       -2.1        104.09      
C           105.1       -12.14      96.23       
C           103.99      -11.8       95.52       
S           105.11      -11.41      97.83       
C           99.25       -8.83       98.16       
C           100.42      -9.09       98.97       
C           100.4       -8.87       100.33      
C           99.3        -8.28       100.97      
C           98.2        -7.92       100.15      
C           98.16       -8.23       98.77       
C           99.26       -7.47       102.22      
C           97.79       -7.12       102.27      
C           97.31       -7.05       100.9       
C           99.65       -9.08       96.71       
C           100.92      -9.93       96.83       
C           101.48      -9.67       98.15       
C           97.0        -6.55       103.23      
C           95.84       -5.85       102.8       
C           95.49       -5.77       101.44      
C           96.28       -6.28       100.4       
C           101.71      -10.6       95.84       
C           103.02      -11.06      96.26       
C           103.43      -10.86      97.61       
C           102.74      -10.15      98.55       
C           99.66       -8.35       103.41      
C           99.98       -6.11       102.08      
C           98.4        -9.91       96.2        
C           100.02      -7.82       95.9        
H           97.25       -7.99       98.25       
H           101.36      -9.17       100.88      
H           101.35      -10.84      94.88       
H           103.03      -10.0       99.62       
H           97.2        -6.72       104.3       
H           96.09       -6.12       99.31       
H           100.7       -8.64       103.38      
H           99.47       -7.89       104.39      
H           99.06381    -9.26225    103.38845   
H           99.52       -5.55       101.29      
H           99.7        -5.59       102.97      
H           101.03131   -6.18814    101.80297   
H           99.44       -7.74       94.97       
H           101.06      -7.91       95.73       
H           99.81632    -6.89994    96.44782    
H           97.57       -9.22       96.08       
H           98.06       -10.57      97.01       
H           98.5628     -10.58242   95.35771    
H           95.04       -5.05       104.66      
H           103.84      -12.17      94.53       
S           94.05       -4.79       101.23      
C           94.91       -5.15       103.65      
C           93.95       -4.48       102.93      
C           108.46      -14.83      95.53       
C           107.56      -14.56      94.45       
C           108.12      -14.23      96.67       
N           107.51      -15.07      93.24       
N           105.67      -13.43      93.56       
S           106.33      -14.38      92.36       
H           106.85      -13.09      97.93       
H           108.71      -14.36      97.51       
C           106.99      -13.43      96.95       
C           106.47      -13.6       94.66       
C           106.17      -13.01      95.94       
C           122.29      -23.28      94.32       
C           121.75      -22.65      93.29       
S           121.13      -23.4       95.69       
C           116.16      -20.26      93.46       
C           116.48      -21.08      94.64       
C           115.74      -21.0       95.84       
C           114.58      -20.31      95.86       
C           114.25      -19.57      94.71       
C           114.96      -19.59      93.48       
C           113.71      -19.88      97.07       
C           112.79      -18.93      96.34       
C           113.06      -18.82      94.96       
C           117.31      -20.17      92.47       
C           118.18      -21.25      93.09       
C           117.76      -21.69      94.35       
C           111.8       -18.25      96.98       
C           111.11      -17.37      96.13       
C           111.45      -17.18      94.77       
C           112.45      -17.91      94.11       
C           119.42      -21.63      92.57       
C           120.35      -22.32      93.43       
C           119.85      -22.71      94.72       
C           118.54      -22.48      95.19       
C           112.83      -21.1       97.57       
C           114.46      -19.14      98.2        
C           116.95      -20.62      91.07       
C           118.11      -18.83      92.43       
H           114.6       -19.04      92.64       
H           116.09      -21.56      96.73       
H           119.78      -21.39      91.56       
H           118.2       -22.72      96.2        
H           111.5       -18.41      98.06       
H           112.6       -17.88      93.0        
H           113.53      -21.9       97.8        
H           112.14      -20.88      98.43       
H           112.26783   -21.56255   96.75876    
H           115.12      -18.36      97.85       
H           113.8       -18.6       98.85       
H           115.08838   -19.72649   98.87027    
H           118.92      -18.94      91.79       
H           118.63      -18.6       93.34       
H           117.56828   -18.01048   91.95774    
H           117.81      -20.55      90.34       
H           116.17      -19.99      90.74       
H           116.57251   -21.64061   91.00709    
H           109.77      -16.3       97.51       
H           122.28      -22.49      92.37       
S           110.55      -15.92      93.99       
C           110.11      -16.39      96.51       
C           109.68      -15.67      95.5        
C           126.41      -24.4       95.17       
C           126.05      -23.92      93.93       
C           125.43      -24.34      96.06       
N           126.91      -23.75      92.89       
N           124.58      -23.32      92.22       
S           126.07      -23.3       91.54       
H           123.44      -23.88      96.67       
H           125.72      -24.72      97.04       
C           124.13      -24.03      95.8        
C           124.72      -23.61      93.53       
C           123.7       -23.62      94.56       
C           140.75      -27.34      102.71      
C           139.79      -26.55      103.19      
S           140.55      -27.64      100.99      
C           134.68      -25.45      100.12      
C           135.67      -26.14      99.41       
C           135.57      -26.31      98.01       
C           134.27      -26.2       97.48       
C           133.35      -25.53      98.26       
C           133.58      -24.94      99.5        
C           133.61      -26.9       96.34       
C           132.22      -26.25      96.36       
C           132.08      -25.44      97.52       
C           135.04      -25.36      101.64      
C           136.43      -25.98      101.6       
C           136.78      -26.38      100.3       
C           131.14      -26.33      95.5        
C           129.93      -25.61      95.74       
C           129.89      -24.82      96.93       
C           130.91      -24.7       97.83       
C           137.38      -25.94      102.67      
C           138.67      -26.35      102.33      
C           138.95      -26.96      101.09      
C           138.04      -26.86      100.07      
C           134.4       -26.91      95.0        
C           133.26      -28.34      96.79       
C           134.93      -23.93      102.21      
C           134.14      -26.31      102.48      
H           132.78      -24.4       100.07      
H           136.3       -26.91      97.57       
H           137.0       -25.54      103.61      
H           138.25      -27.32      99.05       
H           131.28      -27.04      94.75       
H           130.81      -24.08      98.63       
H           135.34      -27.39      95.16       
H           134.02      -27.45      94.16       
H           134.64758   -25.92694   94.5995     
H           132.44      -28.23      97.39       
H           132.71      -28.86      96.0        
H           134.09491   -28.9208    97.18204    
H           133.12      -25.91      102.4       
H           134.4       -26.14      103.51      
H           134.17664   -27.33592   102.1136    
H           133.93      -23.63      102.09      
H           134.96      -24.09      103.28      
H           135.68521   -23.2242    101.86416   
H           128.49      -25.95      93.93       
H           139.9       -26.09      104.2       
S           128.35      -24.05      97.0        
C           128.68      -25.55      94.94       
C           127.73      -24.83      95.58       
C           144.41      -28.95      104.71      
C           143.68      -27.92      105.38      
C           143.88      -29.34      103.53      
N           143.91      -27.41      106.64      
N           141.9       -26.42      105.51      
S           142.72      -26.32      106.89      
H           142.39      -29.19      101.99      
H           144.43      -30.07      102.93      
C           142.72      -28.73      102.9       
C           142.48      -27.31      104.73      
C           141.99      -27.79      103.44      
C           151.03      -40.96      113.42      
C           150.11      -40.93      112.44      
S           151.78      -39.39      113.57      
C           149.02      -36.35      108.66      
C           149.5       -36.01      109.92      
C           149.88      -34.65      110.19      
C           149.57      -33.65      109.29      
C           149.01      -34.01      108.03      
C           148.84      -35.38      107.69      
C           149.56      -32.13      109.4       
C           148.75      -31.7       108.16      
C           148.37      -32.88      107.46      
C           148.67      -37.82      108.69      
C           149.16      -38.24      110.04      
C           149.91      -37.21      110.64      
C           148.17      -30.49      107.79      
C           147.2       -30.43      106.75      
C           146.93      -31.64      106.08      
C           147.48      -32.82      106.37      
C           149.16      -39.51      110.61      
C           149.93      -39.71      111.69      
C           150.79      -38.69      112.27      
C           150.77      -37.41      111.73      
C           148.89      -31.61      110.66      
C           150.98      -31.53      109.19      
C           147.12      -37.94      108.62      
C           149.49      -38.56      107.61      
H           148.31      -35.6       106.76      
H           150.5       -34.47      111.06      
H           148.63      -40.34      110.08      
H           151.36      -36.64      112.15      
H           148.4       -29.53      108.25      
H           147.14      -33.73      106.0       
H           149.36      -31.66      111.67      
H           148.66      -30.54      110.55      
H           147.93098   -32.12196   110.73932   
H           151.19      -31.6       108.09      
H           151.0       -30.41      109.35      
H           151.77977   -31.99005   109.77037   
H           149.47      -39.62      107.88      
H           150.57      -38.26      107.62      
H           149.11621   -38.45739   106.59125   
H           146.77      -38.88      108.36      
H           146.92      -37.23      107.8       
H           146.66373   -37.65755   109.56876   
H           146.46      -28.33      106.68      
H           149.72      -41.83      112.09      
S           145.63      -31.44      104.92      
C           146.38      -29.38      106.29      
C           145.5       -29.71      105.27      
C           153.15      -44.32      115.19      
C           151.89      -44.57      114.54      
C           153.55      -43.01      115.22      
N           151.29      -45.73      114.31      
N           150.05      -43.87      113.29      
S           149.91      -45.51      113.51      
H           153.22      -40.98      114.91      
H           154.56      -42.86      115.63      
C           152.82      -41.95      114.71      
C           151.17      -43.44      113.98      
C           151.6       -42.12      114.1       
C           163.72      -56.4       113.68      
C           164.15      -55.12      113.49      
S           162.27      -56.56      114.56      
C           160.46      -50.58      115.15      
C           159.96      -51.93      115.36      
C           158.68      -52.19      115.86      
C           157.95      -51.07      116.34      
C           158.4       -49.77      116.06      
C           159.68      -49.5       115.53      
C           156.42      -51.01      116.71      
C           156.13      -49.49      116.69      
C           157.31      -48.76      116.41      
C           161.86      -50.61      114.4       
C           161.97      -52.09      114.2       
C           160.89      -52.83      114.77      
C           154.86      -48.8       116.88      
C           154.83      -47.42      116.47      
C           156.02      -46.77      116.19      
C           157.29      -47.36      116.19      
C           163.06      -52.74      113.73      
C           163.15      -54.13      113.82      
C           162.04      -54.85      114.42      
C           160.89      -54.24      114.92      
C           155.53      -51.72      115.69      
C           156.17      -51.39      118.25      
C           161.76      -49.85      113.02      
C           163.0       -50.11      115.31      
H           160.05      -48.49      115.32      
H           158.31      -53.13      116.05      
H           163.86      -52.22      113.18      
H           160.1       -54.77      115.49      
H           153.9       -49.33      116.95      
H           158.18      -46.81      115.88      
H           155.76      -52.74      115.81      
H           154.41      -51.69      115.84      
H           155.81617   -51.43383   114.67792   
H           156.61      -50.65      118.92      
H           155.1       -51.32      118.55      
H           156.50769   -52.4101    118.43291   
H           163.91      -50.3       114.73      
H           163.01      -50.69      116.21      
H           162.95697   -49.0485    115.55386   
H           161.52      -48.73      113.12      
H           162.65      -49.89      112.43      
H           160.92835   -50.21251   112.41581   
H           152.71      -46.89      116.37      
H           165.07      -54.82      112.98      
S           155.71      -45.16      115.6       
C           153.69      -46.6       116.31      
C           153.98      -45.41      115.73      
C           165.55      -60.28      112.74      
C           166.35      -59.15      112.93      
C           164.23      -60.09      112.86      
N           167.66      -59.19      112.91      
N           166.7       -56.96      113.55      
S           168.14      -57.69      113.42      
H           162.52      -58.77      113.14      
H           163.53      -60.93      112.71      
C           163.6       -58.79      113.16      
C           165.77      -57.88      113.27      
C           164.33      -57.7       113.36      
H           26.19       10.91       59.51       
H           166.03      -61.17      113.04      
