612

C           10.14       57.08       49.61       
C           10.0        58.45       49.84       
S           11.2        56.41       50.87       
C           12.97       61.62       54.08       
C           13.27       60.22       54.07       
C           14.17       59.64       54.97       
C           14.64       60.43       56.0        
C           14.17       61.79       56.11       
C           13.36       62.37       55.17       
C           15.57       60.18       57.18       
C           15.34       61.43       58.08       
C           14.58       62.38       57.36       
C           12.0        62.02       52.96       
C           11.79       60.65       52.28       
C           12.57       59.64       52.94       
C           15.92       61.77       59.36       
C           15.58       63.03       60.02       
C           14.61       63.81       59.35       
C           14.14       63.56       58.02       
C           10.91       60.33       51.28       
C           10.81       58.95       50.89       
C           11.55       57.96       51.61       
C           12.49       58.3        52.62       
C           15.26       58.81       57.84       
C           17.05       60.16       56.85       
C           10.68       62.59       53.45       
C           12.69       62.99       51.86       
H           13.04       63.37       55.33       
H           14.45       58.57       54.96       
H           10.37       61.04       50.73       
H           13.12       57.55       53.16       
H           16.6        61.08       59.84       
H           13.35       64.15       57.48       
H           15.91       58.04       57.5        
H           15.57       58.88       58.92       
H           14.23698    58.44057    57.91104    
H           17.29       61.21       56.74       
H           17.64       59.74       57.66       
H           17.33998    59.61722    55.95033    
H           12.19       62.67       50.94       
H           13.7        62.64       51.73       
H           12.56349    64.05828    52.0357     
H           10.75       63.57       53.91       
H           9.92        62.61       52.62       
H           10.22707    61.89981    54.16175    
H           16.88       63.06       61.76       
H           9.35        59.12       49.21       
S           14.19       65.15       60.4        
C           16.08       63.51       61.27       
C           15.45       64.66       61.58       
C           7.78        54.69       46.67       
C           8.96        54.17       47.34       
C           7.51        55.93       47.11       
N           9.45        52.9        47.08       
N           10.94       54.23       48.64       
S           10.81       52.72       48.01       
H           8.0         57.71       48.27       
H           6.69        56.55       46.67       
C           8.33        56.72       48.01       
C           9.79        54.9        48.28       
C           9.4         56.25       48.72       
C           -1.52       48.29       34.79       
C           -2.13       49.09       35.79       
S           0.04        47.78       35.38       
C           0.84        51.02       40.66       
C           1.46        50.0        39.97       
C           2.77        49.58       40.14       
C           3.51        50.28       41.03       
C           2.96        51.36       41.79       
C           1.59        51.69       41.66       
C           4.99        50.32       41.09       
C           5.28        51.48       42.14       
C           3.98        52.03       42.56       
C           -0.59       51.22       40.22       
C           -0.71       50.16       39.09       
C           0.48        49.45       39.01       
C           6.44        51.92       42.65       
C           6.39        52.83       43.69       
C           5.14        53.38       44.02       
C           3.93        53.12       43.41       
C           -1.68       50.01       38.17       
C           -1.36       49.28       36.98       
C           -0.15       48.55       36.9        
C           0.64        48.55       37.98       
C           5.43        48.87       41.45       
C           5.64        50.69       39.77       
C           -1.61       50.78       41.28       
C           -0.94       52.6        39.68       
H           1.08        52.5        42.22       
H           3.21        48.72       39.64       
H           -2.56       50.56       38.18       
H           1.65        48.09       37.89       
H           7.35        51.4        42.42       
H           2.96        53.58       43.78       
H           5.58        48.24       40.54       
H           4.62        48.36       41.98       
H           6.30956     48.79731    42.08968    
H           5.38        50.01       38.92       
H           6.8         50.76       39.9        
H           5.172       51.626      39.46509    
H           -0.69       53.18       40.61       
H           -1.95       52.56       39.33       
H           -0.2782     52.86754    38.85627    
H           -1.31       51.29       42.2        
H           -2.6        51.13       41.02       
H           -1.69404    49.70142    41.41307    
H           8.43        53.01       44.51       
H           -3.09       49.56       35.65       
S           5.35        54.54       45.32       
C           7.39        53.29       44.59       
C           7.01        54.08       45.61       
C           -3.01       46.86       30.87       
C           -1.77       46.42       31.43       
C           -3.69       47.72       31.64       
N           -0.97       45.7        30.75       
N           0.03        46.57       32.8        
S           0.41        45.57       31.6        
H           -3.87       48.8        33.54       
H           -4.74       48.03       31.39       
C           -3.21       48.14       32.97       
C           -1.24       46.98       32.63       
C           -2.02       47.82       33.52       
C           -11.18      39.48       19.42       
C           -10.0       38.83       19.6        
S           -10.85      41.19       19.37       
C           -5.86       41.74       22.82       
C           -6.67       42.59       22.03       
C           -6.87       43.97       22.33       
C           -6.38       44.45       23.57       
C           -5.45       43.59       24.28       
C           -5.2        42.22       23.97       
C           -6.81       45.66       24.41       
C           -5.69       45.66       25.48       
C           -5.1        44.33       25.52       
C           -5.88       40.3        22.39       
C           -6.98       40.36       21.32       
C           -7.29       41.71       21.1        
C           -5.65       46.45       26.53       
C           -4.79       46.13       27.56       
C           -4.16       44.89       27.59       
C           -4.41       43.91       26.66       
C           -7.68       39.34       20.64       
C           -8.89       39.67       20.04       
C           -9.21       41.03       19.99       
C           -8.4        42.08       20.34       
C           -6.85       46.9        23.53       
C           -8.16       45.58       25.14       
C           -4.53       39.9        21.81       
C           -6.15       39.34       23.59       
H           -4.59       41.68       24.66       
H           -7.65       44.54       21.85       
H           -7.38       38.34       20.73       
H           -8.76       43.1        20.32       
H           -6.19       47.4        26.51       
H           -4.1        42.9        26.7        
H           -7.62       46.72       22.84       
H           -7.05       47.74       24.18       
H           -5.91489    47.0771     22.99869    
H           -7.94       45.11       26.07       
H           -8.44       46.64       25.31       
H           -8.89613    44.96419    24.62329    
H           -5.28       39.26       24.19       
H           -6.41       38.3        23.27       
H           -6.96808    39.75259    24.18044    
H           -3.73       40.29       22.54       
H           -4.39       38.85       21.7        
H           -4.31415    40.35258    20.84218    
H           -4.94       47.91       28.96       
H           -10.0       37.78       19.66       
S           -3.25       44.69       29.08       
C           -4.48       46.88       28.79       
C           -3.6        46.35       29.63       
C           -15.34      38.09       18.58       
C           -14.25      37.31       18.27       
C           -14.93      39.33       19.0        
N           -14.43      36.05       17.8        
N           -12.02      36.7        18.25       
S           -12.95      35.39       17.73       
H           -13.5       40.72       19.56       
H           -15.66      40.14       19.13       
C           -13.64      39.76       19.2        
C           -12.86      37.69       18.53       
C           -12.49      39.01       19.01       
C           -30.1       41.04       13.09       
C           -29.59      41.62       14.19       
S           -29.17      39.68       12.55       
C           -24.8       39.25       17.24       
C           -25.25      38.57       16.08       
C           -24.59      37.42       15.57       
C           -23.35      37.21       16.16       
C           -22.87      37.9        17.34       
C           -23.62      38.88       17.93       
C           -22.19      36.4        15.61       
C           -21.04      36.64       16.67       
C           -21.46      37.58       17.64       
C           -25.41      40.67       17.26       
C           -26.52      40.47       16.19       
C           -26.4       39.25       15.5        
C           -19.69      36.32       16.59       
C           -18.72      37.01       17.4        
C           -19.16      37.86       18.42       
C           -20.56      38.18       18.52       
C           -27.53      41.35       15.8        
C           -28.38      40.98       14.73       
C           -28.1       39.86       13.93       
C           -27.18      38.94       14.37       
C           -22.55      34.93       15.5        
C           -21.54      36.86       14.24       
C           -26.0       40.97       18.67       
C           -24.55      41.8        16.74       
H           -23.3       39.48       18.76       
H           -24.88      36.84       14.71       
H           -27.74      42.25       16.28       
H           -27.05      38.05       13.76       
H           -19.47      35.67       15.76       
H           -20.89      39.01       19.06       
H           -22.35      34.59       14.53       
H           -23.66      34.84       15.54       
H           -22.10235   34.30329    16.27133    
H           -22.01      36.41       13.34       
H           -20.5       36.47       14.18       
H           -21.60398   37.93351    14.06227    
H           -25.19      42.64       16.67       
H           -24.25      41.44       15.79       
H           -23.59568   42.00746    17.22408    
H           -25.29      40.9        19.51       
H           -26.43      42.03       18.71       
H           -26.90444   40.42876    18.94774    
H           -16.67      36.41       16.69       
H           -29.97      42.62       14.52       
S           -17.9       38.62       19.34       
C           -17.22      36.98       17.41       
C           -16.7       37.85       18.27       
C           -32.42      42.42       9.55        
C           -31.87      43.36       10.44       
C           -32.18      41.16       9.97        
N           -31.85      44.68       10.16       
N           -30.73      44.01       12.36       
S           -31.13      45.33       11.46       
H           -31.54      39.64       11.42       
H           -32.49      40.32       9.4         
C           -31.56      40.65       11.14       
C           -31.16      42.94       11.63       
C           -30.92      41.55       11.99       
C           -39.12      43.12       -5.45       
C           -38.99      41.93       -4.82       
S           -38.15      44.31       -4.7        
C           -36.13      41.47       0.49        
C           -36.04      42.75       -0.11       
C           -35.56      43.93       0.55        
C           -35.27      43.87       1.91        
C           -35.29      42.57       2.47        
C           -35.61      41.37       1.72        
C           -34.97      45.01       2.91        
C           -34.43      44.13       4.0         
C           -34.9       42.74       3.88        
C           -36.89      40.47       -0.34       
C           -37.16      41.34       -1.57       
C           -36.59      42.61       -1.43       
C           -34.01      44.6        5.19        
C           -33.79      43.66       6.19        
C           -34.19      42.28       6.01        
C           -34.77      41.82       4.87        
C           -38.03      41.0        -2.61       
C           -38.16      41.95       -3.64       
C           -37.53      43.24       -3.49       
C           -36.72      43.56       -2.4        
C           -33.88      45.95       2.33        
C           -36.25      45.76       3.41        
C           -35.91      39.2        -0.55       
C           -38.27      40.06       0.32        
H           -35.58      40.43       2.23        
H           -35.59      44.88       0.02        
H           -38.57      40.08       -2.68       
H           -36.2       44.53       -2.32       
H           -33.77      45.6        5.48        
H           -34.98      40.73       4.71        
H           -34.35      46.45       1.48        
H           -33.63      46.63       3.19        
H           -32.95343   45.46158    2.02833     
H           -36.91      45.23       4.05        
H           -36.09      46.67       3.95        
H           -36.88519   46.15614    2.61772     
H           -38.22      39.24       1.01        
H           -38.96      39.85       -0.49       
H           -38.70182   40.88705    0.88357     
H           -35.82      38.68       0.34        
H           -36.52      38.58       -1.22       
H           -34.9539    39.35445    -1.05011    
H           -32.77      44.84       7.74        
H           -39.56      41.04       -5.05       
S           -33.71      41.32       7.41        
C           -33.22      43.84       7.5         
C           -32.99      42.67       8.22        
C           -42.52      44.21       -7.98       
C           -41.7       43.11       -8.33       
C           -42.01      44.95       -6.99       
N           -42.0       42.3        -9.25       
N           -39.88      41.72       -8.09       
S           -40.84      41.16       -9.31       
H           -40.61      45.06       -5.32       
H           -42.52      45.78       -6.67       
C           -40.87      44.51       -6.26       
C           -40.47      42.76       -7.64       
C           -40.04      43.53       -6.51       
C           -57.56      47.51       -14.44      
C           -57.11      46.24       -14.3       
S           -56.71      48.55       -13.29      
C           -51.69      44.81       -11.72      
C           -52.08      46.18       -11.71      
C           -51.22      47.04       -11.13      
C           -50.0       46.65       -10.62      
C           -49.55      45.36       -10.83      
C           -50.48      44.38       -11.25      
C           -49.12      47.47       -9.71       
C           -47.94      46.46       -9.62       
C           -48.22      45.23       -10.25      
C           -52.81      43.95       -12.4       
C           -53.75      45.08       -12.88      
C           -53.37      46.29       -12.32      
C           -46.81      46.66       -8.82       
C           -45.86      45.62       -8.92       
C           -46.13      44.39       -9.6        
C           -47.3       44.18       -10.33      
C           -54.96      44.95       -13.54      
C           -55.82      46.08       -13.65      
C           -55.48      47.3        -13.05      
C           -54.26      47.39       -12.33      
C           -48.5       48.77       -10.29      
C           -49.73      47.73       -8.31       
C           -52.31      43.15       -13.62      
C           -53.62      43.02       -11.47      
H           -50.21      43.35       -11.38      
H           -51.57      48.08       -10.93      
H           -55.25      43.94       -13.87      
H           -53.87      48.3        -11.92      
H           -46.65      47.58       -8.28       
H           -47.42      43.35       -10.99      
H           -49.39      49.39       -10.44      
H           -47.96      49.44       -9.62       
H           -48.02782   48.63407    -11.26297   
H           -49.96      46.73       -7.89       
H           -48.96      48.34       -7.86       
H           -50.64032   48.32948    -8.3174     
H           -54.19      42.24       -12.0       
H           -54.33      43.66       -10.93      
H           -52.97788   42.53143    -10.73714   
H           -51.47      42.45       -13.23      
H           -53.2       42.65       -13.96      
H           -51.76865   43.74988    -14.35156   
H           -44.22      46.38       -7.63       
H           -57.65      45.34       -14.77      
S           -44.7       43.38       -9.6        
C           -44.59      45.6        -8.25       
C           -43.86      44.47       -8.48       
C           -61.39      49.19       -16.04      
C           -60.65      48.12       -16.71      
C           -60.69      49.56       -14.87      
N           -61.07      47.49       -17.81      
N           -58.86      46.65       -17.02      
S           -60.03      46.25       -18.04      
H           -59.09      49.33       -13.38      
H           -61.14      50.26       -14.21      
C           -59.39      49.03       -14.4       
C           -59.33      47.65       -16.26      
C           -58.73      48.1        -15.09      
C           -72.72      60.35       -20.28      
C           -71.59      60.72       -19.57      
S           -72.54      58.74       -20.9       
C           -67.27      56.69       -18.43      
C           -68.27      56.3        -19.3       
C           -68.34      54.96       -19.75      
C           -67.38      54.05       -19.23      
C           -66.52      54.42       -18.25      
C           -66.36      55.74       -17.91      
C           -67.03      52.6        -19.7       
C           -66.11      52.18       -18.58      
C           -65.72      53.26       -17.84      
C           -67.34      58.21       -18.07      
C           -68.57      58.59       -18.88      
C           -69.01      57.48       -19.59      
C           -65.38      51.07       -18.52      
C           -64.29      50.9        -17.65      
C           -64.01      51.97       -16.85      
C           -64.69      53.19       -16.88      
C           -69.3       59.78       -18.84      
C           -70.57      59.75       -19.54      
C           -70.89      58.68       -20.42      
C           -70.12      57.51       -20.4       
C           -68.17      51.57       -19.7       
C           -66.28      52.46       -21.03      
C           -67.61      58.42       -16.55      
C           -66.26      59.15       -18.58      
H           -65.5       56.04       -17.33      
H           -69.08      54.63       -20.43      
H           -68.97      60.64       -18.25      
H           -70.54      56.66       -20.88      
H           -65.57      50.32       -19.3       
H           -64.36      54.08       -16.32      
H           -68.81      51.72       -20.56      
H           -67.85      50.58       -19.91      
H           -68.73394   51.55554    -18.76733   
H           -65.23      52.71       -21.05      
H           -66.23      51.39       -21.3       
H           -66.73366   53.06023    -21.81868   
H           -66.48      60.21       -18.23      
H           -66.28      59.0        -19.62      
H           -65.23397   58.97431    -18.25673   
H           -66.69      58.25       -15.9       
H           -67.85      59.48       -16.38      
H           -68.37559   57.74108    -16.17443   
H           -63.43      48.81       -18.08      
H           -71.52      61.65       -19.14      
S           -62.55      51.66       -15.92      
C           -63.38      49.74       -17.51      
C           -62.52      49.98       -16.46      
C           -76.76      62.08       -19.84      
C           -76.41      61.23       -20.93      
C           -75.77      62.27       -18.98      
N           -77.25      60.81       -21.91      
N           -74.97      59.9        -22.2       
S           -76.41      59.82       -22.94      
H           -73.85      61.8        -18.19      
H           -76.04      62.86       -18.1       
C           -74.49      61.69       -19.04      
C           -75.08      60.76       -21.15      
C           -74.09      60.89       -20.11      
C           -91.37      65.57       -13.0       
C           -90.27      66.33       -12.8       
S           -90.95      64.05       -13.68      
C           -84.9       64.82       -15.26      
C           -85.87      63.75       -15.24      
C           -85.61      62.6        -15.98      
C           -84.39      62.61       -16.57      
C           -83.35      63.48       -16.3       
C           -83.61      64.62       -15.63      
C           -83.83      61.38       -17.32      
C           -82.55      61.93       -17.86      
C           -82.27      63.08       -17.16      
C           -85.43      66.11       -14.68      
C           -86.81      65.66       -14.19      
C           -87.1       64.3        -14.61      
C           -81.58      61.37       -18.74      
C           -80.34      61.96       -18.86      
C           -80.08      63.15       -18.15      
C           -81.05      63.69       -17.29      
C           -87.76      66.43       -13.5       
C           -89.04      65.81       -13.39      
C           -89.34      64.53       -13.88      
C           -88.34      63.74       -14.43      
C           -83.57      60.23       -16.38      
C           -84.7       60.97       -18.54      
C           -84.5       66.53       -13.49      
C           -85.46      67.12       -15.87      
H           -82.84      65.4        -15.42      
H           -86.37      61.91       -16.16      
H           -87.58      67.4        -13.11      
H           -88.5       62.68       -14.69      
H           -81.75      60.4        -19.26      
H           -80.87      64.62       -16.93      
H           -84.55      59.88       -16.09      
H           -83.0       59.41       -16.89      
H           -82.93687   60.47187    -15.52634   
H           -85.03      61.84       -19.12      
H           -83.98      60.41       -19.14      
H           -85.54108   60.29998    -18.3618    
H           -84.41      67.31       -16.17      
H           -85.86      66.59       -16.7       
H           -86.02734   68.04192    -15.74235   
H           -83.51      66.82       -13.76      
H           -84.96      67.47       -13.12      
H           -84.54965   65.84203    -12.646     
H           -79.09      60.55       -20.17      
H           -90.33      67.26       -12.25      
S           -78.49      63.77       -18.5       
C           -79.18      61.49       -19.58      
C           -78.11      62.33       -19.41      
C           -95.6       66.42       -12.43      
C           -94.67      67.17       -11.71      
C           -95.12      65.43       -13.26      
N           -94.94      68.09       -10.74      
N           -92.6       67.68       -10.97      
S           -93.59      68.54       -9.96       
H           -93.36      64.51       -14.11      
H           -95.78      64.85       -13.86      
C           -93.72      65.23       -13.41      
C           -93.27      66.82       -11.76      
C           -92.77      65.82       -12.7       
C           -110.76     71.55       -16.72      
C           -110.22     70.37       -17.22      
S           -110.17     71.76       -15.05      
C           -105.1      67.83       -15.13      
C           -105.72     68.77       -14.23      
C           -105.02     69.22       -13.11      
C           -103.74     68.71       -12.82      
C           -103.08     67.88       -13.76      
C           -103.74     67.47       -14.93      
C           -102.8      69.07       -11.66      
C           -101.55     68.35       -12.08      
C           -101.73     67.69       -13.35      
C           -106.09     67.5        -16.22      
C           -107.18     68.49       -16.04      
C           -106.97     69.19       -14.81      
C           -100.28     68.36       -11.45      
C           -99.25      67.66       -12.11      
C           -99.46      66.99       -13.37      
C           -100.73     67.03       -13.96      
C           -108.28     68.84       -16.82      
C           -109.14     69.79       -16.39      
C           -108.95     70.5        -15.21      
C           -107.89     70.15       -14.38      
C           -102.68     70.65       -11.82      
C           -103.46     68.63       -10.35      
C           -105.46     67.68       -17.67      
C           -106.77     66.1        -16.0       
H           -103.24     66.83       -15.56      
H           -105.43     70.07       -12.49      
H           -108.39     68.37       -17.84      
H           -107.8      70.62       -13.37      
H           -100.11     68.81       -10.52      
H           -101.02     66.46       -14.86      
H           -103.66     71.11       -11.71      
H           -102.38     70.73       -12.89      
H           -101.91188  71.14578    -11.22646   
H           -104.52     68.33       -10.42      
H           -103.39     69.41       -9.59       
H           -103.07638  67.67096    -10.0019    
H           -107.68     65.99       -16.59      
H           -107.27     66.11       -14.97      
H           -106.08771  65.25424    -16.08529   
H           -106.15     67.53       -18.46      
H           -104.61     66.94       -17.82      
H           -105.02784  68.66281    -17.8582    
H           -97.46      67.93       -10.79      
H           -110.56     70.0        -18.2       
S           -97.94      66.26       -13.93      
C           -97.85      67.5        -11.7       
C           -97.04      66.77       -12.47      
C           -113.73     74.61       -17.93      
C           -113.75     73.28       -18.53      
C           -112.66     74.83       -17.06      
N           -114.59     72.92       -19.48      
N           -113.03     71.2        -18.85      
S           -114.22     71.4        -19.86      
H           -110.96     74.11       -15.98      
H           -112.56     75.77       -16.56      
C           -111.7      73.8        -16.74      
C           -112.78     72.3        -18.16      
C           -111.79     72.49       -17.16      
C           -123.61     86.12       -25.16      
C           -122.44     86.4        -24.59      
S           -124.1      84.47       -24.71      
C           -119.02     82.37       -21.48      
C           -120.24     81.85       -21.96      
C           -120.46     80.5        -21.88      
C           -119.47     79.7        -21.29      
C           -118.35     80.19       -20.68      
C           -118.09     81.58       -20.81      
C           -119.59     78.21       -21.06      
C           -118.45     77.94       -20.11      
C           -117.67     79.05       -20.0       
C           -118.78     83.82       -21.88      
C           -120.13     84.13       -22.57      
C           -120.95     82.96       -22.61      
C           -118.0      76.74       -19.72      
C           -116.71     76.65       -19.18      
C           -115.86     77.8        -19.14      
C           -116.37     79.08       -19.52      
C           -120.59     85.3        -23.21      
C           -121.83     85.32       -23.85      
C           -122.56     84.14       -23.89      
C           -122.13     82.95       -23.35      
C           -120.93     77.79       -20.43      
C           -119.26     77.38       -22.32      
C           -118.53     84.64       -20.56      
C           -117.66     84.07       -22.96      
H           -117.13     81.95       -20.55      
H           -121.38     80.11       -22.39      
H           -120.02     86.22       -23.22      
H           -122.89     82.19       -23.35      
H           -118.67     75.91       -19.79      
H           -115.8      79.97       -19.47      
H           -121.82     78.11       -21.04      
H           -120.97     76.76       -20.44      
H           -121.09402  78.03959    -19.38171   
H           -118.25     77.65       -22.59      
H           -119.26     76.3        -22.12      
H           -119.94223  77.50926    -23.16021   
H           -117.67     85.15       -23.07      
H           -117.96     83.66       -23.96      
H           -116.647    83.7464     -22.72082   
H           -118.32     85.69       -20.91      
H           -117.73     84.24       -19.95      
H           -119.3807   84.60455    -19.87944   
H           -116.5      74.49       -18.67      
H           -121.99     87.35       -24.68      
S           -114.33     77.34       -18.31      
C           -116.04     75.48       -18.67      
C           -114.73     75.62       -18.27      
C           -125.74     88.82       -27.93      
C           -126.26     87.44       -27.6       
C           -124.61     89.15       -27.24      
N           -127.35     86.91       -28.17      
N           -126.27     85.45       -26.45      
S           -127.63     85.54       -27.38      
H           -123.04     88.69       -25.81      
H           -124.31     90.15       -27.4       
C           -123.95     88.28       -26.34      
C           -125.62     86.59       -26.6       
C           -124.36     86.98       -26.02      
H           15.7        65.29       62.46       
H           -126.24     89.59       -28.4       
