612

C           101.97      3.24        68.76       
C           101.77      2.07        68.04       
S           100.97      3.29        70.18       
C           98.85       -2.82       70.2        
C           98.9        -1.71       71.07       
C           98.36       -1.7        72.36       
C           98.0        -3.0        72.86       
C           98.17       -4.16       72.03       
C           98.5        -4.09       70.64       
C           97.51       -3.36       74.25       
C           97.55       -4.85       74.26       
C           97.87       -5.3        72.97       
C           99.55       -2.44       68.89       
C           100.0       -1.01       69.12       
C           99.41       -0.5        70.3        
C           97.32       -5.74       75.26       
C           97.42       -7.1        74.95       
C           97.8        -7.55       73.67       
C           98.02       -6.65       72.64       
C           100.73      -0.22       68.29       
C           100.92      1.13        68.68       
C           100.4       1.63        69.89       
C           99.6        0.84        70.7        
C           98.49       -2.84       75.36       
C           96.04       -3.02       74.58       
C           100.73      -3.44       68.72       
C           98.64       -2.45       67.61       
H           98.57       -4.95       69.97       
H           98.29       -0.8        72.92       
H           101.3       -0.66       67.44       
H           99.23       1.22        71.6        
H           97.28       -5.43       76.3        
H           98.44       -6.87       71.66       
H           97.98       -2.87       76.28       
H           98.52       -1.76       75.18       
H           99.45431    -3.34792    75.37472    
H           95.46       -3.63       73.87       
H           95.72       -3.43       75.55       
H           95.83321    -1.95752    74.45165    
H           99.07       -3.11       66.85       
H           98.64       -1.46       67.22       
H           97.61947    -2.81598    67.72261    
H           100.26      -4.34       68.67       
H           101.2       -3.31       67.75       
H           101.46688   -3.37623    69.52065    
H           97.25       -8.08       77.0        
H           102.21      1.91        67.07       
S           98.05       -9.26       73.64       
C           97.41       -8.19       75.92       
C           97.84       -9.34       75.38       
C           104.34      6.94        68.21       
C           104.53      5.79        67.37       
C           103.27      6.73        69.08       
N           105.34      5.78        66.27       
N           104.29      3.64        66.79       
S           105.44      4.26        65.82       
H           101.82      5.57        70.12       
H           102.96      7.63        69.66       
C           102.56      5.52        69.34       
C           103.87      4.56        67.63       
C           102.78      4.44        68.57       
C           111.0       22.04       66.3        
C           110.59      21.67       67.53       
S           110.39      20.88       65.18       
C           107.82      16.28       68.58       
C           107.98      16.66       67.25       
C           107.55      15.83       66.21       
C           107.05      14.54       66.44       
C           106.91      14.14       67.76       
C           107.26      15.01       68.87       
C           106.73      13.49       65.46       
C           106.24      12.33       66.4        
C           106.44      12.71       67.77       
C           108.49      17.32       69.53       
C           108.81      18.43       68.55       
C           108.59      17.96       67.18       
C           105.85      11.12       66.0        
C           105.63      10.21       67.04       
C           105.66      10.54       68.39       
C           106.09      11.84       68.78       
C           109.4       19.67       68.77       
C           109.82      20.45       67.65       
C           109.59      19.95       66.35       
C           108.93      18.72       66.19       
C           105.72      13.85       64.39       
C           107.97      12.73       64.8        
C           107.3       17.89       70.43       
C           109.75      16.85       70.33       
H           107.31      14.72       69.91       
H           107.69      16.22       65.19       
H           109.62      19.99       69.76       
H           108.87      18.31       65.19       
H           105.69      10.77       64.93       
H           106.06      12.18       69.82       
H           106.03      14.52       63.59       
H           105.54      12.91       63.86       
H           104.82796   14.27064    64.85415    
H           108.73      12.46       65.51       
H           107.57      11.79       64.36       
H           108.47515   13.32897    64.04227    
H           109.45      16.51       71.29       
H           110.37      17.66       70.63       
H           110.39466   16.13526    69.81847    
H           107.14      16.98       71.01       
H           107.56      18.73       71.09       
H           106.38579   18.00774    69.84823    
H           105.22      8.34        65.94       
H           110.86      22.33       68.35       
S           104.99      9.28        69.42       
C           105.32      8.85        66.92       
C           104.86      8.28        68.03       
C           112.28      25.83       64.35       
C           111.93      25.73       65.72       
C           112.37      24.62       63.73       
N           111.8       26.78       66.51       
N           111.11      24.62       67.63       
S           111.15      26.28       68.01       
H           112.06      22.51       63.72       
H           112.7       24.57       62.71       
C           111.98      23.39       64.4        
C           111.52      24.51       66.34       
C           111.59      23.26       65.69       
C           114.54      38.84       54.34       
C           113.88      37.74       53.89       
S           114.46      39.01       56.05       
C           112.53      33.19       57.68       
C           113.14      34.35       58.29       
C           113.49      34.37       59.63       
C           113.4       33.17       60.34       
C           112.83      32.02       59.75       
C           112.37      32.02       58.4        
C           113.82      32.86       61.76       
C           113.33      31.45       62.0        
C           112.87      30.94       60.75       
C           112.15      33.47       56.2        
C           112.87      34.84       56.08       
C           113.21      35.39       57.28       
C           113.23      30.64       63.15       
C           112.9       29.32       63.0        
C           112.52      28.83       61.71       
C           112.52      29.62       60.58       
C           112.98      35.57       54.91       
C           113.52      36.85       54.93       
C           113.74      37.42       56.26       
C           113.56      36.73       57.42       
C           115.37      32.93       61.96       
C           113.06      33.8        62.77       
C           112.89      32.55       55.22       
C           110.63      33.58       55.83       
H           111.9       31.18       58.04       
H           113.81      35.27       60.05       
H           112.68      35.14       53.97       
H           113.86      37.19       58.39       
H           113.52      31.08       64.1        
H           112.22      29.28       59.64       
H           115.45      32.7        63.03       
H           115.75      33.89       61.86       
H           115.87645   32.12691    61.42461    
H           113.53      34.75       62.69       
H           113.25      33.51       63.83       
H           111.99609   33.88805    62.54988    
H           110.33      32.64       55.46       
H           110.44      34.31       55.07       
H           110.00667   33.84093    56.68526    
H           112.44      31.57       55.21       
H           112.77      32.83       54.18       
H           113.9304    32.40748    55.51217    
H           113.09      28.65       65.03       
H           113.75      37.57       52.8        
S           112.19      27.07       61.9        
C           112.85      28.36       64.04       
C           112.5       27.11       63.62       
C           116.59      42.23       52.52       
C           115.37      41.65       51.94       
C           117.08      41.42       53.55       
N           114.71      42.19       50.93       
N           113.49      40.18       51.89       
S           113.37      41.23       50.64       
H           116.88      39.72       54.92       
H           117.96      41.82       54.09       
C           116.43      40.28       54.08       
C           114.72      40.48       52.51       
C           115.25      39.86       53.68       
C           114.86      57.89       54.03       
C           115.56      57.15       54.95       
S           115.11      57.15       52.44       
C           117.65      51.53       54.05       
C           117.39      52.29       52.95       
C           117.35      51.72       51.64       
C           117.65      50.34       51.51       
C           117.95      49.64       52.68       
C           118.15      50.25       53.9        
C           117.52      49.41       50.28       
C           117.71      48.04       50.96       
C           117.88      48.23       52.32       
C           117.64      52.44       55.27       
C           116.96      53.67       54.7        
C           116.95      53.59       53.32       
C           117.56      46.8        50.38       
C           117.51      45.65       51.3        
C           117.75      45.93       52.6        
C           117.97      47.19       53.22       
C           116.63      54.88       55.33       
C           116.09      55.88       54.53       
C           115.96      55.77       53.15       
C           116.4       54.66       52.53       
C           116.12      49.57       49.54       
C           118.63      49.56       49.2        
C           116.75      51.86       56.43       
C           119.07      52.85       55.76       
H           118.28      49.6        54.72       
H           117.01      52.32       50.8        
H           116.75      55.07       56.38       
H           116.2       54.49       51.46       
H           117.53      46.69       49.31       
H           118.11      47.25       54.32       
H           116.17      49.08       48.59       
H           115.93      50.65       49.37       
H           115.28398   49.12365    50.07846    
H           119.51      49.16       49.69       
H           118.32      48.94       48.31       
H           118.78719   50.59602    48.89991    
H           118.9       53.66       56.45       
H           119.52      53.24       54.88       
H           119.6865    52.06033    56.18947    
H           117.11      50.94       56.8        
H           116.68      52.61       57.19       
H           115.73499   51.73224    56.05381    
H           117.0       43.82       50.1        
H           115.69      57.57       55.98       
S           117.67      44.51       53.6        
C           117.25      44.25       51.1        
C           117.14      43.47       52.21       
C           112.4       61.52       54.14       
C           113.02      61.11       55.35       
C           112.71      60.75       53.05       
N           112.85      61.63       56.57       
N           114.41      59.67       56.55       
S           113.86      60.81       57.57       
H           113.61      59.07       52.17       
H           112.19      61.0        52.14       
C           113.49      59.59       53.03       
C           113.85      59.86       55.34       
C           114.15      59.11       54.16       
C           103.41      75.12       50.45       
C           103.91      74.28       49.49       
S           103.77      74.69       52.08       
C           106.9       69.26       50.97       
C           106.38      69.93       52.07       
C           106.5       69.38       53.38       
C           107.29      68.25       53.53       
C           107.88      67.66       52.43       
C           107.72      68.12       51.12       
C           107.83      67.69       54.89       
C           108.68      66.56       54.35       
C           108.66      66.5        52.86       
C           106.32      69.8        49.65       
C           105.68      71.07       50.2        
C           105.7       71.14       51.6        
C           109.47      65.61       55.09       
C           110.24      64.67       54.39       
C           110.17      64.61       53.01       
C           109.5       65.58       52.22       
C           104.95      72.03       49.48       
C           104.42      73.13       50.09       
C           104.58      73.21       51.53       
C           105.14      72.17       52.28       
C           108.74      68.74       55.58       
C           106.75      67.18       55.85       
C           107.48      70.04       48.69       
C           105.35      68.86       48.92       
H           108.14      67.72       50.2        
H           106.23      70.08       54.24       
H           104.78      71.87       48.39       
H           105.17      72.25       53.39       
H           109.42      65.65       56.18       
H           109.63      65.46       51.13       
H           109.03      68.52       56.63       
H           108.11      69.63       55.73       
H           109.63768   69.05598    55.04857    
H           106.38      68.05       56.42       
H           107.13      66.51       56.69       
H           105.94609   66.67038    55.31885    
H           105.88      67.94       48.85       
H           105.02      69.21       47.93       
H           104.50006   68.56942    49.53747    
H           108.13      69.18       48.63       
H           107.01      70.33       47.71       
H           108.05998   70.93069    48.93166    
H           110.75      63.13       55.97       
H           103.74      74.44       48.47       
S           111.43      63.51       52.44       
C           110.92      63.51       54.98       
C           111.61      62.76       54.03       
C           101.0       78.52       49.01       
C           102.44      78.36       48.76       
C           100.52      77.55       49.86       
N           103.18      79.1        47.96       
N           104.51      77.23       48.9        
S           104.66      78.49       47.88       
H           100.84      75.69       51.08       
H           99.5        77.58       50.09       
C           101.32      76.43       50.41       
C           103.24      77.34       49.32       
C           102.69      76.37       50.18       
C           89.19       86.59       40.91       
C           88.92       86.25       42.14       
S           90.91       86.47       40.49       
C           93.16       83.52       45.61       
C           93.6        84.23       44.51       
C           94.89       84.38       44.1        
C           95.83       83.74       44.86       
C           95.43       82.9        45.95       
C           94.12       82.83       46.34       
C           97.34       83.86       44.87       
C           97.71       82.92       45.97       
C           96.6        82.23       46.48       
C           91.63       83.53       45.66       
C           91.29       84.47       44.5        
C           92.45       84.66       43.74       
C           98.98       82.55       46.46       
C           99.05       81.33       47.29       
C           97.84       80.67       47.74       
C           96.6        81.12       47.34       
C           90.07       85.02       44.06       
C           90.03       85.67       42.79       
C           91.26       85.8        42.05       
C           92.47       85.37       42.57       
C           97.87       83.46       43.45       
C           97.9        85.25       45.29       
C           90.99       82.19       45.41       
C           91.31       84.04       47.08       
H           93.83       82.19       47.16       
H           95.22       84.89       43.17       
H           89.13       84.86       44.58       
H           93.38       85.53       42.02       
H           99.85       83.08       46.1        
H           95.63       80.61       47.64       
H           97.4        84.04       42.64       
H           97.59       82.4        43.35       
H           98.95239    83.40846    43.33219    
H           97.59       85.48       46.36       
H           99.03       85.21       45.28       
H           97.63122    86.08539    44.64348    
H           91.52       83.13       47.74       
H           91.83       84.98       47.43       
H           90.2366     84.12474    47.24948    
H           91.23       81.4        46.21       
H           89.96       82.29       45.45       
H           91.22425    81.75699    44.43751    
H           101.24      80.91       47.43       
H           87.92       86.2        42.6        
S           98.32       79.34       48.76       
C           100.24      80.59       47.73       
C           99.99       79.45       48.42       
C           86.96       88.69       37.63       
C           86.4        88.6        38.93       
C           88.23       88.17       37.47       
N           85.2        89.13       39.26       
N           86.33       87.89       41.15       
S           84.96       88.76       40.88       
H           89.9        87.24       38.4        
H           88.79       88.44       36.61       
C           88.91       87.6        38.59       
C           87.06       87.85       40.03       
C           88.39       87.26       39.83       
C           76.23       93.46       26.47       
C           76.99       92.27       26.41       
S           76.93       94.58       27.59       
C           82.23       91.59       29.44       
C           81.56       92.8        29.74       
C           81.89       93.53       30.86       
C           82.78       92.98       31.7        
C           83.56       91.85       31.39       
C           83.31       91.18       30.22       
C           83.02       93.47       33.12       
C           83.96       92.38       33.61       
C           84.3        91.45       32.55       
C           81.44       90.76       28.45       
C           80.36       91.69       28.0        
C           80.47       92.93       28.75       
C           84.32       92.17       34.93       
C           85.06       90.97       35.15       
C           85.32       90.06       34.16       
C           84.97       90.29       32.82       
C           79.21       91.44       27.3        
C           78.21       92.36       27.15       
C           78.34       93.59       27.78       
C           79.48       93.85       28.6        
C           83.62       94.92       33.03       
C           81.68       93.47       33.91       
C           82.32       90.28       27.23       
C           80.67       89.63       29.11       
H           83.9        90.37       29.89       
H           81.34       94.41       31.15       
H           79.22       90.67       26.64       
H           79.47       94.68       29.33       
H           83.96       92.85       35.65       
H           85.18       89.57       32.05       
H           82.96       95.71       33.4        
H           83.96       95.19       32.01       
H           84.47833    95.09311    33.67916    
H           80.96       94.31       33.64       
H           81.84       93.82       34.93       
H           81.23505    92.47583    33.95171    
H           79.81       89.31       28.45       
H           80.22       90.15       29.87       
H           81.30062    88.81817    29.47242    
H           83.35       89.89       27.39       
H           81.8        89.48       26.73       
H           82.49416    91.10002    26.53334    
H           85.21       90.93       37.43       
H           76.62       91.41       25.85       
S           86.3        88.72       34.89       
C           85.45       90.44       36.47       
C           86.23       89.35       36.51       
C           72.06       93.98       24.88       
C           73.09       94.96       24.74       
C           72.5        92.89       25.49       
N           72.94       96.17       24.18       
N           75.22       95.78       25.16       
S           74.4        96.98       24.26       
H           73.97       91.74       26.64       
H           71.83       92.08       25.55       
C           73.79       92.65       26.01       
C           74.43       94.75       25.25       
C           74.82       93.59       25.97       
C           55.91       94.35       21.1        
C           56.59       93.17       21.36       
S           57.05       95.72       21.16       
C           62.53       93.01       22.5        
C           62.1        94.31       22.14       
C           62.9        95.47       22.27       
C           64.14       95.26       22.73       
C           64.59       93.92       23.07       
C           63.85       92.82       22.84       
C           65.16       96.36       23.03       
C           66.31       95.46       23.49       
C           65.97       94.12       23.46       
C           61.46       91.87       22.42       
C           60.3        92.76       21.99       
C           60.71       94.11       21.81       
C           67.61       95.83       23.8        
C           68.58       94.82       24.0        
C           68.25       93.48       23.95       
C           66.91       93.1        23.78       
C           58.98       92.38       21.8        
C           58.02       93.37       21.55       
C           58.42       94.73       21.44       
C           59.76       95.07       21.63       
C           65.49       97.22       21.76       
C           64.77       97.22       24.31       
C           61.73       90.88       21.24       
C           61.07       91.2        23.78       
H           64.16       91.83       23.1        
H           62.49       96.46       22.01       
H           58.65       91.35       22.0        
H           60.01       96.1        21.63       
H           68.03       96.81       23.63       
H           66.67       92.02       23.8        
H           64.51       97.47       21.37       
H           65.76       98.28       21.97       
H           66.11233    96.77135    20.98571    
H           64.58       96.43       25.05       
H           65.72       97.77       24.56       
H           63.8788     97.8309     24.16626    
H           60.18       90.57       23.72       
H           60.71       91.99       24.46       
H           61.86082    90.64135    24.28061    
H           62.62       90.31       21.48       
H           60.94       90.17       21.24       
H           62.06522    91.33836    20.3096     
H           70.25       96.19       24.27       
H           56.01       92.24       21.29       
S           69.75       92.61       24.26       
C           69.92       95.18       24.28       
C           70.68       94.09       24.49       
C           51.97       95.51       19.56       
C           52.37       94.15       19.45       
C           52.74       96.23       20.46       
N           51.77       93.15       18.82       
N           53.87       92.34       19.84       
S           52.5        91.7        19.18       
H           54.44       96.49       21.6        
H           52.58       97.31       20.64       
C           53.99       95.79       20.96       
C           53.63       93.67       20.07       
C           54.56       94.57       20.69       
C           39.62       104.08      12.15       
C           40.53       104.61      13.11       
S           39.97       102.33      11.98       
C           44.84       101.56      16.08       
C           44.11       100.77      15.2        
C           44.43       99.4        14.94       
C           45.33       98.81       15.76       
C           46.15       99.6        16.66       
C           45.81       100.98      16.89       
C           45.49       97.35       16.03       
C           46.82       97.34       16.8        
C           47.16       98.69       17.17       
C           44.43       103.09      16.11       
C           43.26       102.96      15.1        
C           43.09       101.6       14.54       
C           47.63       96.29       17.15       
C           48.81       96.47       17.77       
C           49.08       97.79       18.19       
C           48.28       98.96       17.97       
C           42.39       103.96      14.72       
C           41.48       103.73      13.69       
C           41.28       102.43      13.1        
C           42.11       101.29      13.55       
C           44.35       96.74       16.83       
C           45.65       96.59       14.69       
C           43.86       103.3       17.53       
C           45.5        104.02      15.64       
H           46.25       101.58      17.73       
H           43.83       98.89       14.2        
H           42.33       104.88      15.24       
H           41.99       100.25      13.24       
H           47.44       95.27       16.83       
H           48.64       99.95       18.14       
H           44.44       95.68       16.69       
H           43.44       97.01       16.32       
H           44.41011    97.07061    17.86691    
H           44.71       96.71       14.13       
H           45.92       95.52       14.74       
H           46.41256    96.98158    14.01675    
H           44.9        104.83      15.2        
H           46.1        103.58      14.84       
H           46.11934    104.45145   16.42636    
H           44.58       102.97      18.25       
H           43.73       104.37      17.85       
H           43.00013    102.6858    17.79736    
H           49.66       94.44       18.22       
H           40.4        105.68      13.44       
S           50.6        97.83       18.95       
C           49.75       95.53       18.22       
C           50.8        96.1        18.93       
C           37.28       105.97      8.97        
C           37.03       104.59      9.38        
C           38.16       106.62      9.73        
N           36.17       103.74      8.88        
N           37.19       102.71      10.75       
S           35.91       102.45      9.8         
H           39.66       106.66      11.2        
H           38.47       107.66      9.55        
C           38.92       106.01      10.72       
C           37.71       103.95      10.5        
C           38.75       104.69      11.19       
C           34.08       114.81      -4.78       
C           34.37       115.34      -3.57       
S           33.93       113.07      -4.78       
C           35.31       111.99      1.44        
C           35.04       111.22      0.27        
C           35.14       109.86      0.29        
C           35.39       109.22      1.45        
C           35.49       109.94      2.65        
C           35.54       111.36      2.64        
C           35.71       107.77      1.69        
C           35.62       107.72      3.21        
C           35.55       109.03      3.74        
C           35.41       113.49      1.14        
C           35.02       113.49      -0.39       
C           34.79       112.17      -0.83       
C           36.0        106.66      4.05        
C           36.19       106.88      5.46        
C           36.07       108.17      5.97        
C           35.71       109.28      5.07        
C           34.85       114.59      -1.17       
C           34.47       114.41      -2.54       
C           34.41       113.07      -3.05       
C           34.51       111.94      -2.19       
C           34.65       106.84      1.14        
C           37.15       107.44      1.35        
C           34.21       114.17      1.89        
C           36.83       113.95      1.48        
H           35.71       111.87      3.55        
H           34.93       109.31      -0.6        
H           35.22       115.57      -0.79       
H           34.37       110.9       -2.6        
H           36.19       105.67      3.53        
H           35.52       110.31      5.43        
H           35.13       105.96      0.7         
H           34.21       107.38      0.29        
H           33.79569    106.64937   1.78955     
H           37.91       108.0       1.95        
H           37.18       106.36      1.66        
H           37.43325    107.59579   0.30904     
H           37.0        113.74      2.57        
H           37.48       113.4       0.82        
H           36.99544    115.01459   1.31456     
H           34.34       113.94      2.89        
H           34.25       115.21      1.71        
H           33.21617    113.92331   1.51643     
H           36.81       104.9       6.39        
H           34.58       116.4       -3.52       
S           36.36       108.24      7.68        
C           36.48       105.95      6.5         
C           36.7        106.53      7.71        
C           34.3        116.84      -8.73       
C           35.24       117.21      -7.68       
C           33.44       115.88      -8.33       
N           36.24       118.05      -7.83       
N           36.16       117.09      -5.55       
S           37.06       118.14      -6.43       
H           32.62       114.51      -6.96       
H           32.71       115.48      -9.01       
C           33.35       115.32      -7.03       
C           35.19       116.57      -6.33       
C           34.26       115.54      -6.02       
H           97.82       -10.29      75.91       
H           33.96       117.53      -9.56       
