612

C           23.11       29.45       16.48       
C           23.84       29.71       15.3        
S           21.75       28.35       16.19       
C           21.24       29.06       9.77        
C           20.59       28.33       10.79       
C           19.53       27.46       10.45       
C           19.13       27.43       9.13        
C           19.76       28.26       8.17        
C           20.81       29.03       8.45        
C           18.09       26.52       8.46        
C           18.24       26.81       6.96        
C           19.16       27.87       6.82        
C           22.52       29.66       10.34       
C           22.47       29.26       11.8        
C           21.27       28.61       12.09       
C           17.45       26.44       5.83        
C           17.59       26.99       4.56        
C           18.58       28.06       4.46        
C           19.31       28.49       5.55        
C           23.31       29.69       12.81       
C           23.11       29.34       14.14       
C           21.92       28.62       14.46       
C           21.05       28.17       13.43       
C           18.56       25.09       8.75        
C           16.69       26.84       9.08        
C           23.78       28.96       9.67        
C           22.67       31.16       10.33       
H           21.47       29.52       7.75        
H           18.99       26.89       11.17       
H           24.25       30.08       12.54       
H           20.17       27.53       13.6        
H           16.75       25.61       5.87        
H           19.99       29.36       5.4         
H           18.5        24.84       9.83        
H           19.64       25.0        8.61        
H           18.04326    24.33583    8.15644     
H           16.68       26.55       10.12       
H           15.93       26.2        8.72        
H           16.33271    27.86812    9.02167     
H           23.62       31.43       10.84       
H           21.92       31.59       10.97       
H           22.61913    31.64693    9.35614     
H           23.85       29.19       8.6         
H           24.69       29.24       10.15       
H           23.78       27.87       9.67        
H           16.36       25.93       3.07        
H           24.76       30.24       15.25       
S           18.66       28.71       2.82        
C           17.02       26.73       3.23        
C           17.37       27.66       2.3         
C           23.78       30.46       20.78       
C           24.82       30.66       19.79       
C           22.71       29.87       20.28       
N           26.03       31.13       20.2        
N           25.79       30.5        17.76       
S           26.86       31.15       18.82       
H           21.49       29.24       18.5        
H           21.79       29.55       20.86       
C           22.53       29.52       18.88       
C           24.64       30.17       18.43       
C           23.45       29.62       17.93       
C           21.62       35.33       36.55       
C           20.62       35.41       35.63       
S           23.16       35.01       35.75       
C           21.66       34.03       29.77       
C           22.85       34.07       30.56       
C           24.16       33.84       30.0        
C           24.15       33.66       28.57       
C           22.96       33.56       27.82       
C           21.68       33.77       28.4        
C           25.38       33.22       27.8        
C           24.78       32.93       26.39       
C           23.35       33.02       26.5        
C           20.41       34.29       30.64       
C           21.0        34.68       31.98       
C           22.38       34.53       31.88       
C           25.38       32.47       25.25       
C           24.55       31.86       24.23       
C           23.13       31.97       24.34       
C           22.53       32.55       25.45       
C           20.28       34.93       33.13       
C           21.04       35.1        34.28       
C           22.44       34.87       34.19       
C           23.15       34.66       32.97       
C           26.42       34.36       27.69       
C           26.05       31.88       28.31       
C           19.62       35.56       30.18       
C           19.49       32.98       30.77       
H           20.77       33.61       27.85       
H           25.04       33.85       30.59       
H           19.17       35.02       33.17       
H           24.23       34.46       32.99       
H           26.44       32.23       25.21       
H           21.49       32.64       25.59       
H           26.67       34.76       28.7        
H           27.36       33.97       27.33       
H           26.06753    35.10641    26.97815    
H           25.3        31.16       28.32       
H           26.75       31.61       27.57       
H           26.63265    31.99063    29.22454    
H           18.64       32.96       30.06       
H           18.97       33.07       31.73       
H           20.04026    32.04174    30.84055    
H           19.26       35.47       29.19       
H           18.77       35.66       30.91       
H           20.25536    36.44522    30.15144    
H           25.85       31.13       22.7        
H           19.6        35.59       35.87       
S           22.26       31.46       22.91       
C           24.86       31.28       22.97       
C           23.76       30.97       22.17       
C           21.72       36.31       40.9        
C           20.47       36.24       40.18       
C           22.83       35.98       40.17       
N           19.26       36.41       40.72       
N           19.21       35.95       38.34       
S           18.16       36.5        39.54       
H           23.68       35.29       38.31       
H           23.82       36.08       40.58       
C           22.74       35.56       38.78       
C           20.47       35.93       38.79       
C           21.62       35.54       38.02       
C           24.21       35.67       57.08       
C           24.88       34.99       56.07       
S           23.3        36.99       56.41       
C           24.5        36.31       50.23       
C           23.71       37.2        51.0        
C           22.73       38.04       50.41       
C           22.59       38.06       49.07       
C           23.44       37.22       48.29       
C           24.43       36.36       48.83       
C           21.38       38.5        48.25       
C           21.89       38.24       46.81       
C           23.0        37.33       46.86       
C           25.41       35.5        51.03       
C           24.78       35.65       52.43       
C           23.92       36.79       52.39       
C           21.23       38.3        45.59       
C           21.7        37.63       44.5        
C           22.85       36.82       44.55       
C           23.51       36.64       45.73       
C           25.16       35.03       53.59       
C           24.61       35.53       54.78       
C           23.77       36.68       54.76       
C           23.42       37.33       53.57       
C           20.18       37.63       48.63       
C           21.07       39.97       48.39       
C           25.34       33.99       50.55       
C           26.82       36.12       51.06       
H           25.09       35.78       48.28       
H           22.01       38.61       50.94       
H           25.82       34.23       53.59       
H           22.85       38.25       53.59       
H           20.25       38.82       45.48       
H           24.36       35.98       45.68       
H           19.25       38.14       48.65       
H           20.38       37.3        49.63       
H           20.09452    36.71826    48.03879    
H           20.87       40.23       49.45       
H           20.2        40.32       47.8        
H           21.90666    40.62386    48.14392    
H           27.37       35.94       52.04       
H           26.76       37.17       51.19       
H           27.52546    35.74282    50.31962    
H           25.49       34.02       49.45       
H           26.12       33.29       50.86       
H           24.37796    33.51271    50.73644    
H           20.34       38.12       42.82       
H           25.57       34.18       56.23       
S           23.17       35.94       43.14       
C           21.16       37.5        43.14       
C           21.87       36.74       42.29       
C           23.43       34.33       61.31       
C           24.09       33.45       60.4        
C           23.01       35.5        60.69       
N           24.47       32.23       60.74       
N           24.89       32.87       58.33       
S           25.2        31.65       59.39       
H           22.85       36.9        59.03       
H           22.55       36.26       61.3        
C           23.2        35.93       59.34       
C           24.33       33.86       59.04       
C           23.97       35.17       58.5        
C           20.41       32.47       77.6        
C           21.09       33.53       77.04       
S           20.11       31.31       76.39       
C           21.46       34.45       70.92       
C           21.21       33.15       71.47       
C           21.29       32.04       70.57       
C           21.53       32.29       69.23       
C           21.74       33.63       68.77       
C           21.69       34.72       69.6        
C           21.71       31.22       68.13       
C           22.12       32.21       66.96       
C           22.09       33.58       67.32       
C           21.57       35.35       72.14       
C           21.39       34.4        73.35       
C           20.98       33.14       72.89       
C           22.23       31.88       65.64       
C           22.58       32.87       64.69       
C           22.63       34.21       65.13       
C           22.44       34.62       66.43       
C           21.49       34.63       74.76       
C           21.18       33.6        75.61       
C           20.69       32.36       75.07       
C           20.58       32.11       73.68       
C           22.89       30.22       68.38       
C           20.4        30.48       67.8        
C           22.96       36.08       72.17       
C           20.4        36.35       72.26       
H           21.76       35.82       69.3        
H           21.26       31.0        71.04       
H           21.77       35.53       75.28       
H           20.2        31.23       73.28       
H           22.01       30.87       65.33       
H           22.59       35.71       66.74       
H           22.64       29.65       69.21       
H           23.82       30.83       68.62       
H           23.18099    29.59543    67.53541    
H           19.85       31.11       67.15       
H           20.58       29.56       67.32       
H           19.74881    30.20983    68.6313     
H           20.61       36.99       73.13       
H           19.4        35.94       72.41       
H           20.28913    37.02907    71.41462    
H           23.17       36.64       71.26       
H           23.15       36.76       72.91       
H           23.79432    35.37889    72.19103    
H           23.12       31.85       62.85       
H           21.28       34.38       77.6        
S           22.96       35.31       63.81       
C           22.89       32.76       63.3        
C           23.1        33.97       62.69       
C           18.96       31.97       81.73       
C           20.21       32.54       81.44       
C           18.26       31.69       80.58       
N           20.98       33.23       82.33       
N           21.78       33.58       79.97       
S           22.17       34.02       81.49       
H           18.24       31.3        78.52       
H           17.32       31.15       80.59       
C           18.79       31.74       79.29       
C           20.63       32.82       80.09       
C           20.04       32.19       78.97       
C           10.85       40.34       92.94       
C           12.11       39.88       93.2        
S           10.2        39.59       91.5        
C           14.7        35.39       90.0        
C           13.39       35.7        89.64       
C           12.87       35.04       88.5        
C           13.63       34.29       87.68       
C           15.02       34.06       87.99       
C           15.5        34.57       89.19       
C           13.29       33.68       86.29       
C           14.63       33.19       85.79       
C           15.62       33.44       86.81       
C           15.26       36.31       91.05       
C           14.04       37.19       91.31       
C           12.95       36.8        90.46       
C           14.97       32.6        84.57       
C           16.32       32.35       84.38       
C           17.36       32.68       85.32       
C           16.97       33.1        86.62       
C           13.8        38.3        92.14       
C           12.5        38.84       92.23       
C           11.54       38.5        91.27       
C           11.74       37.51       90.34       
C           12.31       32.5        86.3        
C           12.83       34.72       85.22       
C           15.68       35.54       92.28       
C           16.46       37.2        90.57       
H           16.52       34.52       89.44       
H           11.82       35.23       88.32       
H           14.61       38.72       92.74       
H           10.98       37.23       89.61       
H           14.18       32.39       83.8        
H           17.72       33.18       87.39       
H           11.33       32.89       86.62       
H           12.21       32.11       85.25       
H           12.57801    31.68892    86.97707    
H           13.66       35.49       85.09       
H           12.68       34.27       84.31       
H           11.85271    35.18439    85.35169    
H           17.33       36.58       90.68       
H           16.55       38.0        91.33       
H           16.3145     37.69471    89.60969    
H           16.21       36.25       92.85       
H           16.37       34.7        91.99       
H           14.85134    35.17251    92.88528    
H           16.32       31.91       82.3        
H           12.8        40.25       93.98       
S           18.95       32.36       84.59       
C           16.92       31.98       83.12       
C           18.25       31.9        83.04       
C           8.17        43.37       94.73       
C           9.06        42.6        95.53       
C           8.39        43.24       93.41       
N           8.98        42.52       96.92       
N           10.53       40.86       95.88       
S           10.01       41.3        97.35       
H           9.42        42.33       91.73       
H           7.73        43.72       92.71       
C           9.32        42.28       92.82       
C           9.91        41.57       94.97       
C           10.09       41.39       93.57       
C           -6.67       50.5        95.57       
C           -5.78       50.84       94.59       
S           -6.07       49.25       96.66       
C           0.02        48.71       94.64       
C           -0.88       48.22       95.65       
C           -0.31       47.47       96.7        
C           1.02        47.15       96.71       
C           1.83        47.58       95.7        
C           1.34        48.39       94.64       
C           1.69        46.17       97.64       
C           3.14        46.27       97.08       
C           3.11        46.97       95.84       
C           -0.86       49.35       93.54       
C           -2.21       49.52       94.29       
C           -2.24       48.67       95.42       
C           4.19        45.36       97.32       
C           5.26        45.27       96.34       
C           5.21        46.06       95.14       
C           4.15        46.96       94.87       
C           -3.32       50.28       93.95       
C           -4.52       50.08       94.73       
C           -4.58       49.21       95.81       
C           -3.4        48.46       96.11       
C           1.59        46.62       99.11       
C           1.28        44.68       97.49       
C           -0.2        50.67       93.09       
C           -1.01       48.27       92.38       
H           1.97        48.82       93.88       
H           -0.98       47.15       97.51       
H           -3.4        50.87       93.03       
H           -3.38       47.98       97.08       
H           4.26        44.63       98.16       
H           3.96        47.35       93.83       
H           2.15        46.02       99.79       
H           0.56        46.39       99.42       
H           1.73419     47.69424    99.22536    
H           0.24        44.49       97.9        
H           2.02        44.05       98.04       
H           1.24449     44.34617    96.45299    
H           -1.82       47.58       92.69       
H           -0.16       47.65       92.37       
H           -1.22164    48.64389    91.37825    
H           0.82        50.36       92.68       
H           -0.73       51.26       92.4        
H           0.09885     51.28957    93.93553    
H           6.55        43.69       97.14       
H           -5.94       51.62       93.9        
S           6.43        45.48       94.06       
C           6.35        44.3        96.3        
C           7.04        44.28       95.13       
C           -10.86      51.77       96.11       
C           -9.88       52.69       95.66       
C           -10.36      50.51       96.46       
N           -10.16      53.93       95.26       
N           -7.76       53.36       95.07       
S           -8.8        54.62       94.87       
H           -8.76       49.14       96.51       
H           -11.09      49.69       96.66       
C           -8.98       50.19       96.27       
C           -8.49       52.35       95.49       
C           -8.03       51.04       95.8        
C           -26.81      50.1        91.95       
C           -26.25      49.56       93.02       
S           -25.7       51.34       91.28       
C           -20.39      50.32       94.69       
C           -20.88      51.18       93.64       
C           -20.12      52.16       93.0        
C           -18.8       52.26       93.4        
C           -18.3       51.35       94.43       
C           -19.08      50.44       95.15       
C           -17.67      53.2        93.07       
C           -16.49      52.66       93.86       
C           -16.88      51.64       94.7        
C           -21.47      49.35       95.12       
C           -22.7       49.84       94.39       
C           -22.27      50.86       93.41       
C           -15.19      53.1        93.89       
C           -14.21      52.5        94.72       
C           -14.68      51.49       95.62       
C           -15.94      51.0        95.53       
C           -24.01      49.35       94.26       
C           -24.92      49.9        93.29       
C           -24.42      50.9        92.39       
C           -23.11      51.4        92.49       
C           -17.5       53.19       91.53       
C           -17.95      54.69       93.47       
C           -21.03      47.85       94.81       
C           -21.77      49.53       96.63       
H           -18.68      49.96       96.05       
H           -20.44      52.77       92.19       
H           -24.34      48.54       94.89       
H           -22.78      52.22       91.88       
H           -14.84      53.95       93.23       
H           -16.23      50.18       96.2        
H           -18.4       53.57       91.09       
H           -16.67      53.87       91.11       
H           -17.35354   52.1857     91.13247    
H           -18.03      54.54       94.59       
H           -17.05      55.32       93.23       
H           -18.8762    55.11035    93.07814    
H           -21.15      48.94       97.33       
H           -22.81      49.3        96.86       
H           -21.96823   50.58724    96.80621    
H           -20.29      47.44       95.45       
H           -21.85      47.14       94.9        
H           -20.67493   47.72218    93.78741    
H           -12.3       53.43       94.32       
H           -26.72      48.65       93.57       
S           -13.37      50.9        96.7        
C           -12.84      52.71       94.91       
C           -12.25      51.89       95.83       
C           -29.74      48.64       89.06       
C           -29.88      48.35       90.49       
C           -28.75      49.54       88.78       
N           -30.78      47.42       90.95       
N           -29.24      48.46       92.72       
S           -30.49      47.37       92.57       
H           -27.11      50.7        89.42       
H           -28.52      49.73       87.68       
C           -27.91      50.11       89.8        
C           -29.02      48.91       91.51       
C           -28.02      49.86       91.17       
C           -38.32      42.36       76.35       
C           -38.05      43.67       76.44       
S           -37.61      41.43       77.67       
C           -34.49      46.08       80.8        
C           -34.81      44.74       80.86       
C           -34.42      43.91       81.93       
C           -33.64      44.49       82.95       
C           -33.27      45.85       82.82       
C           -33.7       46.7        81.79       
C           -33.06      43.81       84.28       
C           -32.54      45.06       84.95       
C           -32.61      46.19       84.12       
C           -35.02      46.61       79.47       
C           -35.84      45.44       78.95       
C           -35.63      44.3        79.71       
C           -31.9       45.11       86.18       
C           -31.5       46.34       86.62       
C           -31.55      47.47       85.78       
C           -32.12      47.46       84.51       
C           -36.56      45.3        77.79       
C           -37.09      44.05       77.47       
C           -36.89      42.87       78.25       
C           -36.15      43.01       79.4        
C           -34.15      43.18       85.19       
C           -31.85      42.94       83.94       
C           -35.95      47.85       79.68       
C           -33.93      46.82       78.39       
H           -33.27      47.73       81.7        
H           -34.77      42.93       82.02       
H           -36.76      46.1        77.04       
H           -36.03      42.2        80.14       
H           -31.8       44.27       86.85       
H           -32.23      48.34       83.87       
H           -34.57      42.44       84.53       
H           -33.72      42.63       86.1        
H           -34.83943   43.92514    85.58694    
H           -31.21      43.48       83.26       
H           -31.29      42.68       84.81       
H           -31.98168   41.98356    83.43406    
H           -34.41      47.03       77.5        
H           -33.33      45.93       78.2        
H           -33.19591   47.59604    78.60673    
H           -35.19      48.6        79.81       
H           -36.47      48.06       78.76       
H           -36.67639   47.74212    80.4855     
H           -30.78      45.92       88.71       
H           -38.46      44.37       75.72       
S           -30.95      48.84       86.64       
C           -30.96      46.61       87.95       
C           -30.52      47.92       88.04       
C           -41.49      40.67       73.8        
C           -40.74      39.79       74.69       
C           -40.94      41.91       73.56       
N           -41.05      38.53       75.03       
N           -39.08      39.31       76.32       
S           -39.97      37.95       76.09       
H           -39.5       43.37       74.16       
H           -41.55      42.58       72.94       
C           -39.8       42.36       74.35       
C           -39.54      40.29       75.5        
C           -39.1       41.63       75.38       
C           -56.68      40.28       67.52       
C           -55.71      40.04       66.63       
S           -56.09      40.11       69.23       
C           -49.88      39.47       68.58       
C           -50.93      39.28       69.56       
C           -50.58      39.24       70.93       
C           -49.25      39.22       71.33       
C           -48.25      39.5        70.4        
C           -48.57      39.69       69.01       
C           -48.68      38.68       72.58       
C           -47.21      39.09       72.41       
C           -46.94      39.55       71.06       
C           -50.48      39.51       67.16       
C           -52.02      39.35       67.47       
C           -52.21      39.28       68.91       
C           -46.19      39.0        73.32       
C           -44.92      39.51       73.02       
C           -44.74      40.03       71.68       
C           -45.69      40.09       70.71       
C           -53.11      39.52       66.6        
C           -54.41      39.67       67.24       
C           -54.47      39.7        68.66       
C           -53.41      39.4        69.54       
C           -49.06      39.41       73.88       
C           -48.81      37.15       72.56       
C           -50.05      40.8        66.35       
C           -50.0       38.28       66.39       
H           -47.72      39.98       68.34       
H           -51.37      39.04       71.63       
H           -52.92      39.7        65.54       
H           -53.6       39.51       70.61       
H           -46.39      38.8        74.37       
H           -45.55      40.45       69.7        
H           -50.1       39.33       74.12       
H           -48.55      39.02       74.72       
H           -48.85034   40.47928    73.90796    
H           -48.26      36.67       71.68       
H           -48.33      36.93       73.42       
H           -49.83      36.76575    72.56699    
H           -49.09      38.51       65.79       
H           -50.75      37.99       65.7        
H           -49.71174   37.45845    67.0458     
H           -48.97      40.93       66.27       
H           -50.44      40.7        65.36       
H           -50.55118   41.70213    66.70083    
H           -43.81      39.48       74.99       
H           -55.86      40.06       65.59       
S           -43.18      40.58       71.61       
C           -43.85      39.71       73.94       
C           -42.85      40.29       73.31       
C           -60.91      41.22       67.02       
C           -60.08      42.02       67.85       
C           -60.4       40.12       66.47       
N           -60.41      43.14       68.48       
N           -57.95      42.58       68.78       
S           -59.14      43.6        69.44       
H           -58.62      39.1        65.98       
H           -60.97      39.45       65.89       
C           -59.0       39.86       66.61       
C           -58.65      41.69       68.02       
C           -58.06      40.66       67.24       
C           -77.17      43.62       64.94       
C           -76.63      42.47       64.46       
S           -76.01      44.59       65.77       
C           -70.58      41.52       65.17       
C           -71.16      42.71       65.73       
C           -70.31      43.69       66.3        
C           -69.04      43.36       66.58       
C           -68.45      42.26       65.89       
C           -69.22      41.36       65.25       
C           -67.98      44.1        67.41       
C           -66.75      43.34       66.96       
C           -67.0       42.32       66.0        
C           -71.68      40.65       64.47       
C           -72.94      41.52       64.78       
C           -72.54      42.76       65.37       
C           -65.44      43.51       67.41       
C           -64.44      42.66       66.93       
C           -64.7       41.8        65.86       
C           -65.99      41.55       65.49       
C           -74.22      41.42       64.27       
C           -75.17      42.43       64.57       
C           -74.71      43.59       65.24       
C           -73.39      43.82       65.61       
C           -67.85      45.61       67.13       
C           -68.13      43.88       68.97       
C           -71.48      40.58       62.93       
C           -71.82      39.22       65.05       
H           -68.77      40.5        64.84       
H           -70.7       44.63       66.61       
H           -74.59      40.55       63.78       
H           -73.08      44.73       66.17       
H           -65.18      44.34       68.04       
H           -66.12      40.83       64.67       
H           -67.19      46.17       67.86       
H           -68.78      46.13       67.4        
H           -67.59943   45.79793    66.08597    
H           -68.69      44.63       69.45       
H           -67.14      44.08       69.42       
H           -68.5473    42.90395    69.21755    
H           -72.67      38.71       64.54       
H           -72.01      39.34       66.09       
H           -70.9175    38.61134    64.99403    
H           -70.74      39.75       62.91       
H           -72.35      40.23       62.28       
H           -71.03975   41.50381    62.5547     
H           -62.69      43.25       68.14       
H           -77.12      41.63       64.07       
S           -63.28      40.86       65.46       
C           -63.09      42.56       67.38       
C           -62.3       41.59       66.75       
C           -81.04      45.48       64.02       
C           -80.97      44.15       64.41       
C           -79.81      46.13       64.14       
N           -82.03      43.3        64.25       
N           -80.05      42.04       64.88       
S           -81.61      41.75       64.5        
H           -77.63      45.87       64.29       
H           -79.61      47.11       63.75       
C           -78.59      45.39       64.36       
C           -79.79      43.4        64.67       
C           -78.5       44.12       64.76       
H           17.01       27.73       1.26        
H           -81.85      45.91       63.47       
