612

C           28.59       97.1        100.57      
C           28.64       97.37       101.87      
S           29.78       98.02       99.72       
C           32.65       101.12      104.34      
C           32.49       101.28      102.93      
C           33.33       102.09      102.16      
C           34.35       102.73      102.87      
C           34.57       102.6       104.26      
C           33.71       101.78      104.99      
C           35.34       103.78      102.35      
C           36.32       103.92      103.5       
C           35.83       103.24      104.62      
C           31.51       100.22      104.91      
C           30.84       99.81       103.6       
C           31.38       100.42      102.49      
C           37.46       104.59      103.61      
C           38.16       104.8       104.83      
C           37.68       104.11      105.95      
C           36.58       103.24      105.83      
C           29.87       98.87       103.45      
C           29.51       98.45       102.16      
C           30.19       98.96       101.07      
C           31.17       99.98       101.17      
C           36.1        103.28      101.14      
C           34.6        105.16      102.1       
C           32.12       98.94       105.48      
C           30.53       100.92      105.9       
H           33.95       101.7       106.07      
H           33.03       102.25      101.11      
H           29.5        98.28       104.29      
H           31.63       100.47      100.28      
H           37.81       105.15      102.8       
H           36.18       102.82      106.8       
H           36.79       104.1       100.71      
H           35.38       103.17      100.33      
H           36.66321    102.35522   101.26516   
H           34.21       105.53      103.07      
H           35.24       105.99      101.77      
H           33.77047    105.0415    101.40291   
H           29.55       100.49      105.96      
H           30.36       101.87      105.41      
H           30.88603    101.07665   106.91824   
H           32.61       99.21       106.42      
H           31.34       98.21       105.8       
H           32.89111    98.50447    104.84455   
H           39.81       106.06      104.39      
H           27.96       96.96       102.64      
S           38.7        104.34      107.35      
C           39.26       105.6       105.19      
C           39.77       105.35      106.41      
C           25.67       94.95       98.17       
C           25.78       94.69       99.61       
C           26.74       95.69       97.64       
N           24.92       93.99       100.35      
N           26.63       95.19       101.69      
S           25.43       94.12       101.92      
H           28.36       96.8        97.89       
H           26.83       95.8        96.56       
C           27.66       96.3        98.45       
C           26.82       95.4        100.39      
C           27.76       96.2        99.79       
C           14.15       89.14       87.94       
C           14.7        90.35       87.81       
S           15.35       88.0        88.68       
C           18.6        92.41       91.79       
C           18.52       91.02       91.7        
C           19.37       90.19       92.51       
C           20.38       90.8        93.27       
C           20.37       92.2        93.36       
C           19.52       93.02       92.63       
C           21.26       90.16       94.31       
C           22.03       91.37       94.82       
C           21.51       92.6        94.24       
C           17.81       93.03       90.69       
C           17.17       91.79       90.07       
C           17.57       90.62       90.7        
C           23.0        91.4        95.77       
C           23.5        92.65       96.12       
C           22.94       93.87       95.54       
C           21.93       93.86       94.63       
C           16.28       91.82       89.0        
C           15.72       90.56       88.74       
C           16.19       89.36       89.36       
C           17.1        89.36       90.37       
C           20.38       89.57       95.44       
C           22.31       89.19       93.63       
C           16.82       93.99       91.38       
C           18.69       93.72       89.61       
H           19.58       94.12       92.59       
H           19.34       89.16       92.29       
H           15.91       92.73       88.59       
H           17.48       88.4        90.73       
H           23.39       90.49       96.22       
H           21.44       94.79       94.19       
H           19.68       88.99       94.93       
H           20.97       88.82       96.03       
H           19.90799    90.33789    96.0529     
H           22.8        89.79       92.83       
H           23.18       88.97       94.32       
H           21.90127    88.25978    93.23536    
H           19.04       94.71       90.04       
H           18.31       93.84       88.59       
H           19.55065    93.08545    89.39848    
H           17.04       95.04       91.62       
H           15.91       94.16       90.73       
H           16.39577    93.56577    92.29003    
H           25.09       92.26       97.59       
H           14.23       91.17       87.18       
S           23.78       95.26       96.18       
C           24.46       93.01       97.12       
C           24.7        94.32       97.26       
C           10.05       87.58       87.41       
C           10.43       88.81       86.78       
C           11.12       86.96       87.96       
N           9.6         89.56       86.07       
N           11.89       90.57       86.33       
S           10.42       90.92       85.67       
H           13.14       87.01       88.66       
H           10.94       86.0        88.44       
C           12.38       87.54       88.1        
C           11.79       89.39       86.93       
C           12.83       88.71       87.56       
C           -3.74       83.39       94.95       
C           -2.5        83.29       95.48       
S           -3.85       84.55       93.65       
C           2.2         85.98       92.9        
C           1.02        86.23       92.21       
C           1.06        86.69       90.88       
C           2.3         86.92       90.29       
C           3.47        86.72       91.04       
C           3.42        86.28       92.35       
C           2.6         87.45       88.9        
C           4.15        87.32       88.89       
C           4.55        86.8        90.11       
C           1.98        85.49       94.32       
C           0.51        85.07       94.24       
C           -0.01       85.62       93.06       
C           5.05        87.62       87.9        
C           6.41        87.4        88.08       
C           6.79        86.75       89.26       
C           5.86        86.48       90.3        
C           -0.26       84.32       95.1        
C           -1.58       84.21       94.79       
C           -2.13       84.84       93.74       
C           -1.39       85.58       92.8        
C           1.95        86.45       87.91       
C           2.13        88.95       88.78       
C           2.98        84.32       94.61       
C           2.2         86.7        95.32       
H           4.32        86.22       92.92       
H           0.14        86.76       90.32       
H           0.07        83.9        96.06       
H           -1.82       85.99       91.91       
H           4.73        88.21       87.02       
H           6.24        85.88       91.18       
H           0.84        86.49       87.97       
H           2.11        86.54       86.83       
H           2.27378     85.43451    88.13812    
H           2.69        89.48       89.5        
H           2.36        89.44       87.85       
H           1.09147     89.18404    89.01404    
H           3.24        86.97       95.32       
H           1.66        87.51       94.88       
H           1.98434     86.47043    96.3635     
H           3.95        84.67       94.68       
H           2.53        83.92       95.51       
H           2.84565     83.51388    93.88874    
H           7.49        88.15       86.22       
H           -2.23       82.7        96.34       
S           8.47        86.51       89.33       
C           7.53        87.67       87.21       
C           8.68        87.25       87.76       
C           -7.15       80.62       95.52       
C           -6.27       80.82       96.55       
C           -7.02       81.53       94.41       
N           -6.13       80.19       97.76       
N           -4.48       81.98       97.52       
S           -4.69       80.66       98.47       
H           -5.75       82.87       93.32       
H           -7.63       81.5        93.47       
C           -5.9        82.4        94.31       
C           -5.17       81.79       96.41       
C           -4.96       82.64       95.32       
C           -21.18      72.28       94.83       
C           -20.56      72.79       93.74       
S           -20.04      72.33       96.17       
C           -14.94      75.11       93.71       
C           -15.23      74.29       94.82       
C           -14.42      74.26       95.91       
C           -13.28      75.0        95.87       
C           -13.03      75.86       94.76       
C           -13.83      75.93       93.6        
C           -12.02      74.89       96.68       
C           -11.47      76.22       96.38       
C           -11.91      76.6        95.1        
C           -16.07      75.14       92.69       
C           -17.1       74.26       93.42       
C           -16.58      73.76       94.62       
C           -10.29      76.79       96.88       
C           -9.61       77.83       96.14       
C           -10.11      78.11       94.83       
C           -11.24      77.52       94.29       
C           -18.36      73.87       93.01       
C           -19.21      73.21       93.91       
C           -18.69      72.91       95.15       
C           -17.35      73.05       95.54       
C           -12.17      74.66       98.18       
C           -11.1       73.84       96.03       
C           -16.5       76.64       92.53       
C           -15.57      74.5        91.35       
H           -13.62      76.55       92.74       
H           -14.7       73.58       96.72       
H           -18.82      74.33       92.08       
H           -17.08      72.8        96.51       
H           -9.94       76.63       97.89       
H           -11.58      77.75       93.25       
H           -12.36      73.65       98.36       
H           -11.14      74.71       98.68       
H           -12.86275   75.38846    98.60136    
H           -10.59      74.29       95.08       
H           -10.14      73.81       96.6        
H           -11.46475   72.81869    95.92057    
H           -14.57      74.95       91.13       
H           -16.26      74.75       90.47       
H           -15.37205   73.42832    91.37048    
H           -17.39      76.54       91.97       
H           -15.86      77.13       91.85       
H           -16.60993   77.22399    93.44377    
H           -7.89       78.39       97.33       
H           -21.08      72.85       92.81       
S           -9.25       79.41       94.03       
C           -8.41       78.59       96.39       
C           -8.13       79.54       95.48       
C           -24.98      70.36       95.72       
C           -24.49      70.34       94.4        
C           -24.23      70.99       96.57       
N           -25.05      69.76       93.32       
N           -22.85      70.87       92.72       
S           -24.16      70.09       92.0        
H           -22.57      72.17       97.15       
H           -24.5       70.98       97.62       
C           -22.98      71.67       96.29       
C           -23.17      70.93       94.0        
C           -22.4       71.64       95.01       
C           -31.63      56.46       99.53       
C           -31.0       57.18       100.52      
S           -32.43      57.52       98.43       
C           -30.0       63.27       99.83       
C           -30.75      62.58       98.84       
C           -31.1       63.26       97.67       
C           -30.65      64.57       97.53       
C           -29.82      65.15       98.52       
C           -29.51      64.54       99.68       
C           -30.64      65.41       96.21       
C           -29.76      66.6        96.6        
C           -29.16      66.34       97.87       
C           -29.54      62.16       100.9       
C           -30.21      60.89       100.36      
C           -31.04      61.2        99.25       
C           -29.23      67.6        95.74       
C           -28.05      68.33       96.11       
C           -27.54      68.0        97.4        
C           -28.05      67.05       98.33       
C           -30.18      59.63       100.93      
C           -30.96      58.63       100.33      
C           -31.68      58.9        99.14       
C           -31.75      60.19       98.62       
C           -30.05      64.61       95.07       
C           -32.02      65.91       95.79       
C           -27.99      61.97       100.99      
C           -30.13      62.46       102.3       
H           -28.68      64.91       100.35      
H           -31.78      62.8        96.97       
H           -29.51      59.45       101.84      
H           -32.17      60.33       97.64       
H           -29.63      67.7        94.73       
H           -27.56      66.9        99.29       
H           -30.73      63.75       94.89       
H           -30.07      65.16       94.08       
H           -29.01825   64.29416    95.22441    
H           -32.47      66.58       96.51       
H           -32.01      66.48       94.81       
H           -32.76196   65.11857    95.68401    
H           -29.53      61.87       102.99      
H           -31.17      62.29       102.27      
H           -29.94333   63.4795     102.63744   
H           -27.55      62.93       101.26      
H           -27.74      61.23       101.81      
H           -27.52799   61.48699    100.12898   
H           -27.45      69.48       94.33       
H           -30.31      56.69       101.23      
S           -26.16      69.03       97.74       
C           -27.21      69.27       95.41       
C           -26.19      69.73       96.17       
C           -31.38      52.09       98.55       
C           -31.34      52.56       99.92       
C           -31.5       53.13       97.75       
N           -31.18      51.76       100.99      
N           -31.27      54.22       101.57      
S           -31.23      52.74       102.28      
H           -31.75      55.09       97.1        
H           -31.5       52.9        96.72       
C           -31.7       54.51       97.96       
C           -31.36      53.98       100.22      
C           -31.6       55.03       99.22       
C           -27.57      37.59       91.55       
C           -27.58      38.82       90.87       
S           -27.77      37.71       93.29       
C           -28.39      44.11       93.67       
C           -28.49      42.98       94.54       
C           -29.06      42.96       95.8        
C           -29.3       44.23       96.3        
C           -29.07      45.43       95.53       
C           -28.5       45.38       94.22       
C           -30.09      44.58       97.57       
C           -30.28      46.05       97.46       
C           -29.67      46.53       96.23       
C           -27.95      43.68       92.24       
C           -27.99      42.16       92.41       
C           -28.26      41.79       93.72       
C           -30.92      46.92       98.3        
C           -31.06      48.34       97.94       
C           -30.41      48.74       96.78       
C           -29.69      47.84       95.95       
C           -27.49      41.26       91.49       
C           -27.72      39.9        91.76       
C           -27.98      39.45       93.06       
C           -28.33      40.41       94.02       
C           -31.43      43.72       97.74       
C           -29.28      44.33       98.85       
C           -29.0       44.17       91.26       
C           -26.52      44.07       91.79       
H           -28.2       46.29       93.72       
H           -29.26      42.05       96.26       
H           -27.22      41.63       90.5        
H           -28.36      40.17       95.08       
H           -31.31      46.59       99.27       
H           -29.19      48.19       95.04       
H           -31.61      43.95       98.8        
H           -31.29      42.62       97.77       
H           -32.24688   44.06806    97.10781    
H           -29.17      43.23       98.94       
H           -29.84      44.58       99.79       
H           -28.30256   44.81154    98.87875    
H           -26.46      44.01       90.7        
H           -25.79      43.38       92.29       
H           -26.24334   45.09656    92.03026    
H           -28.48      44.72       90.5        
H           -29.79      44.81       91.6        
H           -29.601     43.39728    90.78063    
H           -32.11      49.36       99.57       
H           -27.53      38.89       89.77       
S           -30.44      50.47       96.55       
C           -31.63      49.44       98.59       
C           -31.34      50.68       98.05       
C           -27.01      34.18       88.83       
C           -26.41      34.15       90.17       
C           -27.87      35.26       88.61       
N           -25.61      33.24       90.59       
N           -26.13      34.93       92.34       
S           -25.3       33.52       92.17       
H           -28.76      37.03       89.21       
H           -28.35      35.43       87.64       
C           -28.08      36.28       89.58       
C           -26.7       35.18       91.15       
C           -27.5       36.32       90.83       
C           -25.41      25.09       75.23       
C           -25.82      26.43       75.04       
S           -24.44      24.91       76.66       
C           -25.76      30.24       79.89       
C           -24.94      29.08       79.92       
C           -24.34      28.74       81.16       
C           -24.64      29.45       82.31       
C           -25.46      30.58       82.23       
C           -26.13      30.95       81.08       
C           -23.93      29.49       83.63       
C           -24.88      30.22       84.49       
C           -25.62      31.03       83.62       
C           -26.12      30.44       78.45       
C           -25.86      29.03       77.8        
C           -25.05      28.34       78.67       
C           -24.89      30.52       85.82       
C           -25.7       31.63       86.31       
C           -26.33      32.44       85.33       
C           -26.39      32.07       83.99       
C           -25.95      28.49       76.45       
C           -25.49      27.24       76.15       
C           -24.88      26.51       77.17       
C           -24.58      27.05       78.44       
C           -23.63      28.09       84.27       
C           -22.52      30.25       83.65       
C           -27.65      30.97       78.3        
C           -25.1       31.29       77.68       
H           -26.67      31.84       81.03       
H           -23.63      28.0        81.3        
H           -26.49      29.03       75.66       
H           -23.88      26.48       79.05       
H           -24.44      29.84       86.53       
H           -26.88      32.71       83.27       
H           -22.89      27.56       83.75       
H           -23.31      28.25       85.28       
H           -24.47017   27.39686    84.22799    
H           -22.65      31.31       83.61       
H           -21.98      29.96       84.56       
H           -21.86479   30.08447    82.79478    
H           -25.5       31.66       76.73       
H           -24.23      30.6        77.45       
H           -24.7499    32.18714    78.19056    
H           -27.75      32.04       78.58       
H           -28.23      30.56       79.09       
H           -28.12036   30.73855    77.34434    
H           -25.37      31.75       88.57       
H           -26.36      26.7        74.17       
S           -27.02      33.8        86.12       
C           -25.82      32.21       87.65       
C           -26.58      33.3        87.72       
C           -25.88      22.02       72.06       
C           -25.5       21.6        73.34       
C           -26.15      23.36       71.94       
N           -25.06      20.39       73.64       
N           -24.6       22.05       75.43       
S           -24.46      20.42       75.19       
H           -26.36      25.23       72.78       
H           -26.29      23.8        70.95       
C           -26.1       24.18       73.06       
C           -25.14      22.6        74.36       
C           -25.55      24.0        74.29       
C           -34.25      15.18       60.96       
C           -33.96      14.3        61.91       
S           -32.84      16.04       60.42       
C           -29.37      15.31       65.76       
C           -29.11      15.8        64.47       
C           -28.22      16.84       64.13       
C           -27.68      17.49       65.24       
C           -28.04      17.09       66.52       
C           -28.81      15.98       66.84       
C           -26.79      18.75       65.22       
C           -26.67      18.99       66.74       
C           -27.42      18.05       67.47       
C           -30.55      14.31       65.72       
C           -31.02      14.43       64.28       
C           -30.2       15.39       63.56       
C           -26.13      20.1        67.36       
C           -26.3       20.22       68.76       
C           -26.96      19.22       69.41       
C           -27.5       18.11       68.82       
C           -32.15      13.92       63.71       
C           -32.65      14.48       62.47       
C           -31.87      15.35       61.73       
C           -30.66      15.86       62.29       
C           -25.48      18.23       64.63       
C           -27.44      19.9        64.39       
C           -29.96      12.83       66.05       
C           -31.67      14.78       66.68       
H           -28.95      15.68       67.87       
H           -28.07      17.06       63.13       
H           -32.77      13.35       64.33       
H           -30.13      16.65       61.75       
H           -25.47      20.79       66.82       
H           -28.14      17.33       69.31       
H           -25.76      18.08       63.6        
H           -25.3       17.2        64.95       
H           -24.58595   18.83767    64.76969    
H           -28.01      19.56       63.47       
H           -26.65      20.54       64.15       
H           -28.1286    20.44514    65.03556    
H           -32.45      13.98       66.49       
H           -32.17      15.64       66.34       
H           -31.53499   14.72315    67.76011    
H           -29.49      12.93       66.98       
H           -29.13      12.58       65.46       
H           -30.62872   11.97433    65.95652    
H           -25.19      22.14       69.22       
H           -34.65      13.63       62.4        
S           -27.06      19.77       71.12       
C           -25.72      21.29       69.59       
C           -25.99      21.11       70.93       
C           -37.74      15.17       58.27       
C           -37.28      16.41       58.74       
C           -37.08      14.08       58.78       
N           -37.81      17.55       58.53       
N           -35.74      17.71       59.83       
S           -36.91      18.7        59.25       
H           -35.73      13.12       60.08       
H           -37.34      13.05       58.47       
C           -36.06      14.1        59.74       
C           -36.13      16.46       59.62       
C           -35.46      15.24       60.12       
C           -46.01      10.02       45.34       
C           -46.05      9.33        46.51       
S           -45.76      11.8        45.64       
C           -44.12      11.85       51.73       
C           -44.23      12.7        50.65       
C           -43.62      13.98       50.65       
C           -42.81      14.35       51.71       
C           -42.66      13.44       52.74       
C           -43.37      12.26       52.81       
C           -41.79      15.48       51.81       
C           -41.19      15.23       53.19       
C           -41.85      14.1        53.74       
C           -44.76      10.48       51.46       
C           -45.05      10.64       49.98       
C           -44.76      11.98       49.58       
C           -40.24      15.87       53.95       
C           -39.93      15.43       55.27       
C           -40.66      14.34       55.83       
C           -41.68      13.71       55.12       
C           -45.53      9.66        49.06       
C           -45.69      10.14       47.7        
C           -45.46      11.47       47.36       
C           -45.05      12.37       48.28       
C           -40.75      15.28       50.67       
C           -42.46      16.93       51.83       
C           -43.81      9.31        51.84       
C           -46.16      10.25       52.1        
H           -43.43      11.69       53.76       
H           -43.61      14.54       49.67       
H           -45.84      8.66        49.43       
H           -44.89      13.42       48.03       
H           -39.69      16.7        53.51       
H           -42.16      12.87       55.51       
H           -41.24      15.35       49.68       
H           -40.39      14.32       50.87       
H           -39.94498   16.01315    50.72031    
H           -43.19      17.01       52.63       
H           -41.7       17.67       52.16       
H           -42.92599   17.20536    50.88389    
H           -46.43      9.14        52.21       
H           -46.89      10.68       51.55       
H           -46.35364   10.81657    53.01082    
H           -43.49      9.22        52.85       
H           -44.21      8.38        51.57       
H           -42.85071   9.38816     51.32838    
H           -38.27      16.75       55.97       
H           -45.93      8.29        46.49       
S           -39.85      13.71       57.24       
C           -38.94      15.87       56.19       
C           -38.72      15.02       57.22       
C           -46.04      8.43        41.22       
C           -46.91      7.89        42.22       
C           -45.32      9.52        41.77       
N           -47.74      6.83        42.08       
N           -47.71      7.7         44.44       
S           -48.41      6.56        43.59       
H           -44.6       10.76       43.4        
H           -44.56      9.94        41.1        
C           -45.3       10.0        43.12       
C           -46.89      8.36        43.6        
C           -46.13      9.48        44.04       
C           -41.39      0.4         27.42       
C           -42.4       -0.06       28.22       
S           -41.01      2.13        27.78       
C           -44.47      3.27        32.94       
C           -43.58      3.99        32.13       
C           -43.11      5.28        32.5        
C           -43.58      5.88        33.65       
C           -44.49      5.22        34.5        
C           -44.88      3.87        34.19       
C           -43.18      7.24        34.25       
C           -43.77      7.11        35.62       
C           -44.59      5.92        35.74       
C           -44.67      1.83        32.5        
C           -43.93      1.78        31.17       
C           -43.25      3.04        31.07       
C           -43.75      8.0         36.72       
C           -44.54      7.64        37.88       
C           -45.3       6.49        37.91       
C           -45.33      5.65        36.85       
C           -43.85      0.76        30.24       
C           -42.86      0.91        29.24       
C           -42.19      2.18        29.11       
C           -42.44      3.27        29.99       
C           -41.66      7.57        34.37       
C           -43.83      8.47        33.53       
C           -44.15      0.88        33.65       
C           -46.13      1.51        32.26       
H           -45.52      3.39        34.83       
H           -42.53      5.8         31.78       
H           -44.31      -0.25       30.32       
H           -41.83      4.18        29.87       
H           -43.21      8.92        36.61       
H           -45.97      4.75        36.97       
H           -41.19      7.72        33.35       
H           -41.53      8.54        34.88       
H           -41.10429   6.85953     34.98198    
H           -44.89      8.51        33.95       
H           -43.53      9.4         34.03       
H           -43.64529   8.52683     32.45727    
H           -46.75      1.34        33.11       
H           -46.36      0.69        31.54       
H           -46.64303   2.33655     31.76835    
H           -44.6       -0.08       33.56       
H           -44.45      1.19        34.7        
H           -43.07426   0.90776     33.82351    
H           -44.34      9.35        39.22       
H           -42.88      -1.04       28.11       
S           -46.11      6.23        39.39       
C           -44.74      8.38        39.03       
C           -45.65      7.84        39.94       
C           -39.77      -1.22       23.56       
C           -40.81      -1.85       24.3        
C           -39.27      -0.13       24.18       
N           -41.44      -2.96       23.91       
N           -42.46      -2.05       25.94       
S           -42.69      -3.31       24.95       
H           -39.35      1.3         25.68       
H           -38.52      0.54        23.71       
C           -39.77      0.35        25.44       
C           -41.39      -1.28       25.49       
C           -40.85      -0.16       26.19       
H           40.8        105.46      106.65      
H           -39.46      -1.52       22.56       
