612

C           24.02       54.04       38.3        
C           24.4        54.26       39.55       
S           23.24       52.46       38.08       
C           22.15       50.85       44.08       
C           21.96       50.3        42.82       
C           21.16       49.13       42.6        
C           20.55       48.54       43.72       
C           20.76       49.06       44.96       
C           21.53       50.21       45.16       
C           19.74       47.26       43.78       
C           19.32       47.27       45.19       
C           20.03       48.21       45.94       
C           22.97       52.11       43.99       
C           23.34       52.09       42.53       
C           22.64       51.04       41.83       
C           18.5        46.35       45.81       
C           18.45       46.31       47.18       
C           19.11       47.37       47.97       
C           19.93       48.29       47.34       
C           24.15       53.04       41.85       
C           23.95       53.19       40.45       
C           23.37       52.09       39.82       
C           22.65       51.05       40.42       
C           18.51       47.24       42.79       
C           20.53       45.96       43.58       
C           22.2        53.42       44.32       
C           24.28       51.94       44.8        
H           21.52       50.61       46.22       
H           20.79       48.83       41.56       
H           24.61       53.77       42.5        
H           22.1        50.32       39.83       
H           18.05       45.52       45.21       
H           20.43       49.01       48.01       
H           18.69       47.27       41.72       
H           18.0        46.33       42.9        
H           17.87096    48.10416    42.97155    
H           21.23       45.96       44.45       
H           19.91       45.07       43.84       
H           21.0845     45.89519    42.64382    
H           24.86       52.88       44.64       
H           24.99       51.16       44.35       
H           24.18892    51.96102    45.88598    
H           22.02       53.42       45.38       
H           22.84       54.31       44.27       
H           21.33457    53.57735    43.67629    
H           17.11       44.53       47.64       
H           25.06       55.05       39.86       
S           18.57       47.15       49.59       
C           17.67       45.38       47.99       
C           17.56       45.75       49.35       
C           24.82       56.77       34.85       
C           23.58       56.1        35.08       
C           25.77       56.36       35.81       
N           22.61       56.24       34.22       
N           21.98       54.78       36.09       
S           21.25       55.35       34.68       
H           26.22       55.33       37.62       
H           26.74       56.83       35.75       
C           25.41       55.45       36.88       
C           23.28       55.13       36.15       
C           24.22       54.87       37.14       
C           27.71       69.81       25.85       
C           28.34       69.44       27.04       
S           26.69       68.51       25.32       
C           28.22       63.9        29.45       
C           27.35       64.15       28.34       
C           26.49       63.1        27.89       
C           26.4        61.94       28.63       
C           27.29       61.72       29.73       
C           28.19       62.65       30.12       
C           25.53       60.72       28.34       
C           25.71       60.08       29.77       
C           26.91       60.5        30.43       
C           29.04       65.12       29.82       
C           28.54       66.09       28.7        
C           27.58       65.46       27.85       
C           24.82       59.18       30.4        
C           25.29       58.62       31.62       
C           26.58       59.04       32.14       
C           27.43       59.93       31.62       
C           28.92       67.41       28.43       
C           28.22       68.05       27.4        
C           27.24       67.42       26.63       
C           26.85       66.1        26.92       
C           24.04       61.06       28.26       
C           25.99       59.75       27.17       
C           28.74       65.63       31.25       
C           30.52       64.79       29.79       
H           28.81       62.52       31.01       
H           25.9        63.26       26.97       
H           29.65       67.93       29.04       
H           26.22       65.51       26.26       
H           23.87       58.82       30.01       
H           28.35       60.25       32.12       
H           23.43       60.22       28.4        
H           23.85       61.41       27.21       
H           23.70091    61.81032    28.97424    
H           25.83       60.37       26.29       
H           25.33       58.8        27.2        
H           27.02105    59.41112    27.27094    
H           30.89       64.74       30.76       
H           31.08       65.57       29.21       
H           30.73558    63.91333    29.1792     
H           28.88       64.78       31.97       
H           29.42       66.36       31.51       
H           27.7174     65.99521    31.34496    
H           23.65       57.16       32.22       
H           28.83       70.11       27.69       
S           26.75       58.3        33.69       
C           24.64       57.63       32.43       
C           25.19       57.5        33.67       
C           27.02       73.75       23.77       
C           27.89       73.6        24.94       
C           26.51       72.55       23.37       
N           28.73       74.61       25.41       
N           28.95       72.46       26.66       
S           29.62       73.92       26.57       
H           26.12       70.49       23.81       
H           26.0        72.54       22.47       
C           26.65       71.33       24.14       
C           28.07       72.4        25.67       
C           27.47       71.13       25.23       
C           31.96       81.04       10.48       
C           30.79       80.34       10.43       
S           32.43       81.46       12.1        
C           27.7        79.09       15.65       
C           28.89       79.79       15.82       
C           29.4        80.11       17.13       
C           28.82       79.52       18.22       
C           27.74       78.68       18.05       
C           27.04       78.57       16.79       
C           29.46       79.38       19.59       
C           28.48       78.37       20.26       
C           27.48       77.98       19.31       
C           27.39       78.93       14.16       
C           28.59       79.39       13.41       
C           29.37       80.01       14.44       
C           28.52       77.93       21.52       
C           27.69       76.86       21.76       
C           26.79       76.35       20.79       
C           26.65       76.92       19.57       
C           28.95       79.44       12.09       
C           30.2        80.04       11.73       
C           30.99       80.62       12.78       
C           30.58       80.54       14.12       
C           30.92       78.83       19.47       
C           29.33       80.68       20.43       
C           26.98       77.52       13.81       
C           26.19       79.82       13.66       
H           26.24       77.9        16.65       
H           30.21       80.81       17.09       
H           28.29       79.07       11.3        
H           31.15       81.04       14.83       
H           29.21       78.33       22.2        
H           25.99       76.5        18.81       
H           31.51       79.2        20.27       
H           31.25       79.47       18.66       
H           30.99269    77.79052    19.15016    
H           28.28       80.86       20.65       
H           29.78       80.51       21.44       
H           29.77352    81.55274    19.95071    
H           25.23       79.3        13.71       
H           26.41       80.08       12.66       
H           26.06889    80.7034     14.28693    
H           25.87       77.24       13.94       
H           27.2        77.6        12.71       
H           27.68837    76.79059    14.20276    
H           28.16       76.41       23.86       
H           30.34       79.96       9.52        
S           26.23       74.76       21.28       
C           27.57       76.11       22.99       
C           26.95       74.96       22.89       
C           34.95       81.81       7.25        
C           33.78       81.08       6.99        
C           35.1        82.29       8.51        
N           33.47       80.65       5.76        
N           31.82       80.03       7.56        
S           32.11       79.77       5.93        
H           34.45       82.38       10.55       
H           36.0        82.83       8.8         
C           34.11       82.1        9.55        
C           32.78       80.8        8.06        
C           32.93       81.35       9.41        
C           47.73       82.73       -3.05       
C           46.62       81.92       -3.34       
S           47.63       83.53       -1.47       
C           41.43       82.85       -0.11       
C           42.63       83.4        0.48        
C           42.58       84.16       1.72        
C           41.4        84.06       2.43        
C           40.31       83.31       1.88        
C           40.31       82.81       0.57        
C           41.16       84.42       3.88        
C           39.7        83.99       4.09        
C           39.26       83.25       2.92        
C           41.78       82.08       -1.35       
C           43.31       82.26       -1.47       
C           43.75       83.16       -0.48       
C           38.97       84.05       5.21        
C           37.85       83.25       5.26        
C           37.52       82.37       4.18        
C           38.12       82.49       2.93        
C           44.17       81.77       -2.47       
C           45.54       82.15       -2.37       
C           45.94       83.03       -1.34       
C           45.09       83.55       -0.38       
C           42.12       83.54       4.74        
C           41.47       85.91       4.16        
C           41.36       80.62       -1.26       
C           41.08       82.85       -2.57       
H           39.44       82.27       0.13        
H           43.47       84.63       2.11        
H           43.82       81.15       -3.29       
H           45.37       84.22       0.47        
H           39.34       84.51       6.1         
H           37.78       81.82       2.1         
H           42.23       84.18       5.6         
H           43.15       83.46       4.38        
H           41.65587    82.59065    5.00723     
H           42.55       85.91       4.04        
H           41.16       86.31       5.12        
H           41.10646    86.56716    3.37001     
H           40.21       82.21       -2.93       
H           41.86       82.89       -3.38       
H           40.78448    83.88432    -2.39409    
H           40.28       80.58       -1.2        
H           41.49       80.11       -2.18       
H           41.87447    80.05687    -0.48135    
H           37.32       83.51       7.37        
H           46.52       81.36       -4.23       
S           36.14       81.4        4.69        
C           37.02       83.08       6.42        
C           36.01       82.2        6.25        
C           51.23       83.89       -5.45       
C           50.64       82.58       -5.6        
C           50.54       84.74       -4.59       
N           51.07       81.68       -6.47       
N           49.1        80.9        -5.18       
S           50.09       80.37       -6.34       
H           48.96       85.08       -3.39       
H           50.86       85.76       -4.49       
C           49.42       84.33       -3.91       
C           49.48       82.17       -4.85       
C           48.95       83.05       -3.85       
C           65.19       90.37       -9.63       
C           63.99       91.03       -9.74       
S           65.05       89.02       -8.53       
C           59.13       89.44       -6.49       
C           60.28       88.64       -6.44       
C           60.15       87.31       -6.04       
C           58.89       86.76       -6.06       
C           57.77       87.55       -6.19       
C           57.88       88.93       -6.26       
C           58.57       85.3        -6.13       
C           57.03       85.41       -6.24       
C           56.58       86.7        -6.38       
C           59.41       90.76       -7.25       
C           60.9        90.53       -7.61       
C           61.41       89.37       -6.93       
C           56.13       84.32       -6.2        
C           54.77       84.5        -6.27       
C           54.41       85.86       -6.5        
C           55.24       86.93       -6.54       
C           61.72       91.08       -8.61       
C           63.05       90.58       -8.8        
C           63.48       89.57       -8.0        
C           62.69       88.93       -7.13       
C           59.26       84.78       -7.37       
C           59.01       84.51       -4.9        
C           58.48       90.9        -8.48       
C           59.19       92.03       -6.38       
H           57.02       89.54       -6.28       
H           61.05       86.66       -5.94       
H           61.3        91.83       -9.22       
H           63.0        87.98       -6.73       
H           56.51       83.33       -6.08       
H           54.87       87.94       -6.68       
H           60.26       84.8        -7.22       
H           59.06       85.47       -8.16       
H           58.89548    83.83365    -7.76957    
H           60.1        84.59       -4.91       
H           58.97       83.44       -5.0        
H           58.59645    84.91616    -3.9769     
H           58.44       92.7        -6.8        
H           59.99       92.72       -6.28       
H           58.8834     91.83035    -5.35324    
H           57.42       90.88       -8.04       
H           58.63       91.89       -8.92       
H           58.5698     90.17413    -9.28818    
H           53.75       82.59       -5.96       
H           63.77       91.78       -10.49      
S           52.67       85.95       -6.6        
C           53.65       83.62       -6.17       
C           52.51       84.31       -6.03       
C           68.12       89.8        -12.82      
C           67.27       91.0        -12.8       
C           68.22       89.13       -11.6       
N           67.14       91.98       -13.71      
N           65.83       92.52       -11.66      
S           66.24       93.21       -13.13      
H           67.37       88.62       -9.8        
H           68.83       88.27       -11.45      
C           67.26       89.38       -10.57      
C           66.48       91.33       -11.6       
C           66.36       90.41       -10.51      
C           75.09       80.83       -25.15      
C           74.71       80.24       -24.01      
S           74.21       82.38       -25.36      
C           72.08       83.49       -19.48      
C           72.06       84.12       -20.73      
C           71.48       85.41       -20.92      
C           71.07       86.08       -19.8       
C           71.13       85.52       -18.5       
C           71.57       84.2        -18.38      
C           70.24       87.38       -19.78      
C           70.11       87.62       -18.28      
C           70.51       86.43       -17.55      
C           72.22       81.97       -19.68      
C           72.91       81.92       -21.06      
C           72.59       83.12       -21.75      
C           69.41       88.66       -17.67      
C           69.19       88.55       -16.25      
C           69.71       87.45       -15.6       
C           70.28       86.35       -16.2       
C           73.5        80.88       -21.75      
C           73.97       81.1        -23.07      
C           73.59       82.36       -23.72      
C           72.82       83.36       -23.1       
C           71.24       88.48       -20.34      
C           68.89       87.25       -20.59      
C           73.19       81.42       -18.62      
C           70.9        81.12       -19.84      
H           71.49       83.63       -17.48      
H           71.37       85.77       -21.93      
H           73.56       79.94       -21.2       
H           72.5        84.25       -23.68      
H           69.03       89.49       -18.18      
H           70.62       85.48       -15.64      
H           72.0        88.12       -21.05      
H           71.77       88.76       -19.43      
H           70.73583    89.38605    -20.67612   
H           69.04       87.25       -21.69      
H           68.33       88.15       -20.5       
H           68.33306    86.34588    -20.34408   
H           71.17       80.08       -20.08      
H           70.33       81.5        -20.71      
H           70.25788    81.03715    -18.96312   
H           72.86       81.7        -17.6       
H           73.12       80.36       -18.63      
H           74.22764    81.75378    -18.62      
H           68.24       90.5        -15.7       
H           75.19       79.36       -23.63      
S           69.52       87.66       -13.89      
C           68.58       89.55       -15.34      
C           68.69       89.2        -14.02      
C           78.95       80.57       -27.28      
C           78.76       79.67       -26.15      
C           77.87       81.3        -27.67      
N           79.6        78.74       -25.68      
N           77.52       78.97       -24.44      
S           78.84       78.09       -24.42      
H           75.76       81.98       -27.45      
H           77.93       81.92       -28.58      
C           76.57       81.34       -27.02      
C           77.43       79.73       -25.53      
C           76.33       80.67       -25.91      
C           91.47       81.5        -37.94      
C           90.8        80.31       -37.85      
S           90.54       82.8        -37.12      
C           85.77       79.72       -34.55      
C           86.36       80.99       -34.63      
C           86.13       82.0        -33.7       
C           85.17       81.8        -32.76      
C           84.53       80.53       -32.61      
C           84.8        79.51       -33.52      
C           84.56       82.9        -31.84      
C           83.61       82.03       -31.02      
C           83.62       80.65       -31.43      
C           86.32       78.73       -35.58      
C           87.52       79.54       -36.08      
C           87.37       80.9        -35.67      
C           82.73       82.41       -29.97      
C           81.86       81.51       -29.45      
C           81.9        80.22       -29.9       
C           82.82       79.74       -30.82      
C           88.61       79.28       -36.9       
C           89.45       80.36       -37.26      
C           89.31       81.65       -36.7       
C           88.25       81.93       -35.87      
C           85.71       83.44       -30.96      
C           83.87       83.96       -32.76      
C           86.97       77.43       -34.99      
C           85.4        78.37       -36.81      
H           84.25       78.57       -33.46      
H           86.72       82.91       -33.82      
H           88.87       78.28       -37.15      
H           88.15       82.88       -35.33      
H           82.7        83.4        -29.6       
H           82.63       78.78       -31.25      
H           86.38       84.05       -31.63      
H           86.31       82.54       -30.51      
H           85.3426     84.07589    -30.15454   
H           84.5        84.38       -33.42      
H           83.42       84.79       -32.16      
H           83.17219    83.49717    -33.45781   
H           85.67       77.45       -37.36      
H           85.36       79.19       -37.49      
H           84.39401    78.16329    -36.44481   
H           86.24       76.78       -34.6       
H           87.58       76.95       -35.81      
H           87.69793    77.64289    -34.20713   
H           80.57       82.69       -28.07      
H           91.33       79.45       -38.27      
S           80.64       79.25       -29.1       
C           80.78       81.7        -28.5       
C           80.15       80.56       -28.1       
C           95.27       82.91       -39.67      
C           95.02       81.49       -39.57      
C           94.34       83.67       -39.04      
N           95.83       80.51       -39.98      
N           93.7        79.6        -38.99      
S           95.09       79.07       -39.63      
H           92.48       84.05       -38.24      
H           94.51       84.7        -38.94      
C           93.07       83.21       -38.67      
C           93.79       80.97       -38.97      
C           92.78       81.88       -38.55      
C           107.4       91.67       -46.25      
C           106.29      92.2        -45.69      
S           107.67      90.02       -45.64      
C           102.34      89.05       -42.38      
C           103.57      88.32       -42.63      
C           103.68      86.93       -42.39      
C           102.56      86.32       -41.86      
C           101.4       87.01       -41.64      
C           101.24      88.35       -41.96      
C           102.49      84.89       -41.34      
C           101.02      84.81       -40.83      
C           100.41      86.06       -41.07      
C           102.37      90.52       -42.88      
C           103.71      90.53       -43.58      
C           104.44      89.25       -43.39      
C           100.28      83.73       -40.48      
C           98.86       83.96       -40.43      
C           98.34       85.22       -40.47      
C           99.12       86.37       -40.84      
C           104.26      91.56       -44.2       
C           105.51      91.34       -44.86      
C           106.22      90.07       -44.7       
C           105.65      88.99       -43.94      
C           102.85      83.84       -42.45      
C           103.46      84.7        -40.15      
C           101.27      90.94       -43.88      
C           102.47      91.55       -41.72      
H           100.29      88.93       -41.83      
H           104.6       86.42       -42.56      
H           103.69      92.46       -44.35      
H           106.19      88.11       -43.75      
H           100.74      82.79       -40.48      
H           98.65       87.34       -41.03      
H           103.24      82.9        -42.04      
H           103.65      84.21       -43.07      
H           101.93399   83.65968    -43.01259   
H           104.5       84.77       -40.43      
H           103.4       83.7        -39.65      
H           103.24446   85.36747    -39.31566   
H           102.31      92.49       -42.11      
H           103.5       91.63       -41.42      
H           101.80582   91.39288    -40.87013   
H           100.39      91.01       -43.32      
H           101.43      91.89       -44.19      
H           101.2047    90.19271    -44.67082   
H           97.93       81.89       -40.18      
H           106.03      93.21       -45.87      
S           96.64       85.29       -40.26      
C           97.77       83.03       -40.19      
C           96.58       83.52       -39.97      
C           110.3       93.18       -49.21      
C           109.0       93.79       -49.07      
C           110.53      92.11       -48.35      
N           108.54      94.95       -49.65      
N           107.04      94.22       -47.9       
S           107.13      95.37       -49.04      
H           109.84      90.71       -46.87      
H           111.49      91.66       -48.22      
C           109.53      91.59       -47.48      
C           108.09      93.39       -48.07      
C           108.33      92.2        -47.28      
C           121.99      98.81       -59.57      
C           120.73      99.46       -59.47      
S           121.94      97.3        -58.67      
C           116.56      97.63       -55.57      
C           117.61      96.78       -55.85      
C           117.8       95.61       -55.09      
C           116.82      95.19       -54.2       
C           115.73      96.08       -53.95      
C           115.64      97.31       -54.62      
C           116.69      93.89       -53.35      
C           115.38      94.18       -52.61      
C           114.77      95.35       -53.09      
C           116.58      98.82       -56.54      
C           117.95      98.58       -57.26      
C           118.48      97.37       -56.76      
C           114.7       93.26       -51.83      
C           113.42      93.64       -51.28      
C           112.84      94.75       -51.81      
C           113.43      95.59       -52.74      
C           118.62      99.32       -58.18      
C           119.8       98.85       -58.59      
C           120.35      97.62       -58.08      
C           119.64      96.88       -57.15      
C           116.54      92.59       -54.3       
C           117.82      93.72       -52.28      
C           115.4       98.73       -57.54      
C           116.55      100.25      -55.91      
H           114.8       97.92       -54.49      
H           118.67      94.93       -55.29      
H           118.25      100.29      -58.58      
H           119.97      95.87       -56.8       
H           115.16      92.36       -51.47      
H           113.1       96.56       -53.05      
H           117.45      92.26       -54.82      
H           116.27      91.75       -53.7       
H           115.80249   92.74184    -55.08812   
H           117.82      94.67       -51.66      
H           117.76      92.98       -51.5       
H           118.8407    93.67776    -52.66012   
H           115.55      100.66      -56.02      
H           117.2       100.92      -56.49      
H           116.97399   100.3231    -54.90851   
H           114.47      98.63       -56.99      
H           115.36      99.58       -58.28      
H           115.3583    97.81947    -58.13775   
H           112.92      91.98       -49.72      
H           120.54      100.37      -60.05      
S           111.25      95.01       -51.03      
C           112.59      92.94       -50.28      
C           111.4       93.59       -50.03      
C           125.73      99.99       -61.64      
C           124.41      100.45      -62.11      
C           125.56      99.04       -60.63      
N           124.22      101.2       -63.17      
N           122.16      100.6       -62.03      
S           122.6       101.48      -63.33      
H           124.47      97.99       -59.25      
H           126.43      98.53       -60.26      
C           124.39      98.73       -59.99      
C           123.21      100.05      -61.44      
C           123.18      99.23       -60.31      
C           140.02      95.78       -68.31      
C           139.72      95.72       -66.97      
S           138.76      96.62       -69.16      
C           135.11      98.59       -64.35      
C           135.1       98.6        -65.79      
C           134.02      99.17       -66.52      
C           132.94      99.6        -65.78      
C           132.9       99.47       -64.38      
C           133.99      98.94       -63.63      
C           131.71      100.36      -66.41      
C           130.88      100.26      -65.13      
C           131.52      99.89       -63.95      
C           136.42      98.01       -63.8       
C           137.12      97.61       -65.14      
C           136.32      97.98       -66.24      
C           129.48      100.44      -65.07      
C           128.88      100.34      -63.86      
C           129.54      99.96       -62.7       
C           130.91      99.76       -62.69      
C           138.21      96.82       -65.3       
C           138.61      96.53       -66.62      
C           137.87      97.02       -67.72      
C           136.67      97.8        -67.55      
C           131.97      101.8       -66.83      
C           131.07      99.6        -67.54      
C           137.22      99.09       -63.04      
C           136.27      96.72       -62.98      
H           133.95      99.04       -62.51      
H           134.05      99.14       -67.59      
H           138.88      96.45       -64.51      
H           136.04      98.13       -68.43      
H           128.95      100.68      -65.93      
H           131.44      99.37       -61.79      
H           131.04      102.26      -67.03      
H           132.43      101.95      -67.84      
H           132.43372   102.44367   -66.08251   
H           131.64      99.53       -68.47      
H           130.12      100.05      -67.76      
H           130.84385   98.57869    -67.23361   
H           137.25      96.2        -63.05      
H           135.59      96.02       -63.39      
H           135.92249   96.87603    -61.95873   
H           136.61      99.48       -62.16      
H           138.22      98.68       -62.74      
H           137.45472   100.00818   -63.57848   
H           126.74      100.7       -64.44      
H           140.42      95.25       -66.29      
S           128.46      99.66       -61.41      
C           127.42      100.48      -63.58      
C           127.04      100.1       -62.35      
C           143.81      94.98       -70.64      
C           143.64      94.59       -69.28      
C           142.65      95.61       -71.06      
N           144.64      94.09       -68.54      
N           142.44      94.24       -67.3       
S           143.96      93.67       -67.14      
H           140.65      96.03       -71.02      
H           142.58      95.85       -72.15      
C           141.44      95.71       -70.37      
C           142.39      94.73       -68.49      
C           141.19      95.32       -69.09      
H           17.34       45.04       50.13       
H           144.8       95.08       -71.09      
