612

C           51.83       8.44        100.45      
C           51.48       9.68        100.83      
S           51.67       7.29        101.77      
C           48.59       11.0        105.89      
C           49.06       9.72        105.81      
C           48.79       8.69        106.71      
C           47.98       8.97        107.74      
C           47.35       10.25       107.79      
C           47.68       11.27       106.93      
C           47.65       8.11        108.98      
C           46.47       8.86        109.55      
C           46.35       10.12       108.9       
C           49.22       11.87       104.82      
C           49.76       10.81       103.94      
C           49.8        9.58        104.59      
C           45.63       8.45        110.58      
C           44.59       9.3         110.99      
C           44.58       10.59       110.38      
C           45.45       11.06       109.4       
C           50.38       11.02       102.69      
C           50.92       9.85        102.12      
C           50.94       8.58        102.79      
C           50.34       8.38        104.02      
C           47.24       6.64        108.62      
C           48.82       8.12        109.98      
C           48.08       12.59       104.11      
C           50.35       12.88       105.36      
H           47.2        12.26       106.99      
H           49.3        7.69        106.62      
H           50.44       12.06       102.22      
H           50.33       7.37        104.56      
H           45.85       7.45        111.02      
H           45.31       11.98       108.8       
H           47.1        6.01        109.48      
H           48.11       6.17        108.03      
H           46.31625    6.61885     108.04178   
H           49.28       7.15        109.85      
H           48.54       8.18        110.96      
H           49.55746    8.9153      109.87155   
H           50.07       13.83       104.86      
H           51.34       12.76       105.01      
H           50.23679    13.06396    106.42838   
H           47.7        13.37       104.69      
H           48.46       13.29       103.32      
H           47.31714    11.99008    103.61377   
H           43.49       8.19        112.59      
H           51.64       10.51       100.08      
S           43.24       11.5        111.07      
C           43.56       9.08        111.95      
C           42.77       10.19       112.15      
C           54.95       6.97        97.8        
C           53.8        6.17        98.03       
C           54.81       8.34        98.27       
N           53.54       4.97        97.51       
N           51.66       5.8         98.98       
S           52.02       4.58        98.02       
H           53.84       9.77        99.52       
H           55.61       9.06        98.13       
C           53.74       8.78        99.07       
C           52.69       6.68        98.82       
C           52.72       7.99        99.42       
C           67.28       4.98        87.04       
C           67.28       5.98        87.92       
S           66.12       3.8         87.61       
C           63.24       6.62        92.6        
C           63.16       5.48        91.78       
C           62.18       4.56        92.0        
C           61.14       4.71        92.86       
C           61.21       5.86        93.64       
C           62.22       6.8         93.56       
C           59.88       3.85        93.08       
C           59.06       4.79        93.92       
C           59.92       5.88        94.25       
C           64.37       7.46        92.08       
C           64.89       6.65        90.88       
C           64.21       5.44        90.77       
C           57.83       4.6         94.47       
C           57.34       5.52        95.43       
C           58.23       6.62        95.75       
C           59.51       6.82        95.2        
C           65.96       6.91        90.04       
C           66.32       5.97        89.06       
C           65.52       4.78        88.94       
C           64.49       4.43        89.8        
C           59.11       3.43        91.84       
C           60.23       2.74        94.06       
C           63.87       8.82        91.54       
C           65.59       7.55        93.05       
H           62.04       7.8         94.03       
H           62.18       3.66        91.38       
H           66.46       7.94        90.05       
H           63.85       3.55        89.65       
H           57.18       3.83        94.14       
H           60.2        7.67        95.47       
H           59.72       2.69        91.34       
H           58.19       2.84        92.0        
H           58.89024    4.28068     91.1949     
H           60.58       3.06        95.11       
H           59.27       2.26        94.15       
H           60.85641    1.94799     93.64959    
H           66.33       8.24        92.63       
H           66.16       6.63        92.93       
H           65.37319    7.65491     94.11306    
H           63.39       9.44        92.28       
H           64.88       9.28        91.28       
H           63.24457    8.79892     90.64753    
H           55.41       4.55        96.06       
H           67.89       6.86        87.78       
S           57.43       7.67        96.86       
C           56.17       5.43        96.22       
C           56.06       6.53        97.01       
C           69.65       3.88        83.53       
C           69.97       5.01        84.37       
C           68.53       3.2         83.98       
N           71.04       5.78        84.21       
N           69.66       6.48        86.14       
S           71.08       6.88        85.42       
H           66.94       2.96        85.31       
H           68.16       2.38        83.42       
C           67.75       3.59        85.03       
C           69.17       5.46        85.42       
C           68.07       4.67        85.84       
C           76.89       -2.7        70.04       
C           75.6        -3.02       70.36       
S           77.62       -1.57       71.19       
C           72.76       -0.31       75.16       
C           74.07       0.23        74.85       
C           74.75       1.05        75.77       
C           74.11       1.37        76.9        
C           72.79       0.88        77.16       
C           72.05       0.14        76.24       
C           74.68       2.29        77.93       
C           73.44       2.37        78.86       
C           72.37       1.5         78.41       
C           72.33       -1.22       73.98       
C           73.6        -1.28       73.18       
C           74.59       -0.43       73.65       
C           73.24       3.21        80.0        
C           72.03       3.1         80.69       
C           71.06       2.1         80.29       
C           71.19       1.36        79.13       
C           73.83       -2.13       72.11       
C           75.06       -2.17       71.46       
C           76.1        -1.33       72.01       
C           75.87       -0.55       73.09       
C           75.94       1.69        78.64       
C           74.95       3.73        77.47       
C           71.88       -2.54       74.62       
C           71.15       -0.63       73.18       
H           71.11       -0.3        76.54       
H           75.64       1.53        75.48       
H           73.04       -2.77       71.74       
H           76.7        0.07        73.44       
H           74.0        3.91        80.4        
H           70.45       0.6         78.85       
H           76.48       2.59        78.95       
H           76.59       1.06        78.01       
H           75.69303    1.16784     79.56437    
H           75.72       3.59        76.73       
H           75.37       4.34        78.32       
H           74.12444    4.21562     76.94969    
H           70.22       -0.63       73.62       
H           71.23       -1.18       72.25       
H           71.33629    0.38741     72.83609    
H           71.24       -2.33       75.49       
H           71.39       -3.13       73.87       
H           72.69317    -3.13397    75.03719    
H           72.09       4.77        82.05       
H           75.0        -3.75       69.87       
S           69.83       2.01        81.55       
C           71.58       3.91        81.77       
C           70.41       3.43        82.39       
C           79.68       -4.0        66.76       
C           78.26       -4.35       66.7        
C           80.02       -3.24       67.86       
N           77.78       -5.18       65.76       
N           76.18       -4.58       67.63       
S           76.23       -5.51       66.26       
H           79.6        -2.12       69.67       
H           80.99       -2.75       68.02       
C           79.13       -2.88       68.94       
C           77.39       -4.0        67.83       
C           77.82       -3.21       68.95       
C           94.45       -5.7        59.71       
C           94.16       -5.22       60.95       
S           93.05       -6.61       59.05       
C           88.68       -5.32       63.52       
C           88.71       -5.74       62.17       
C           87.54       -6.03       61.45       
C           86.32       -5.87       62.11       
C           86.35       -5.56       63.51       
C           87.49       -5.26       64.21       
C           84.88       -5.86       61.57       
C           84.07       -5.74       62.89       
C           84.95       -5.58       64.05       
C           90.01       -4.76       63.95       
C           90.85       -5.2        62.77       
C           90.12       -5.76       61.77       
C           82.64       -5.57       62.98       
C           82.12       -5.22       64.25       
C           83.04       -5.09       65.35       
C           84.41       -5.32       65.29       
C           92.21       -4.96       62.61       
C           92.85       -5.36       61.41       
C           92.06       -5.95       60.37       
C           90.73       -6.13       60.58       
C           84.62       -4.75       60.59       
C           84.62       -7.23       60.85       
C           90.02       -3.18       63.91       
C           90.55       -5.29       65.3        
H           87.52       -4.93       65.2        
H           87.62       -6.38       60.4        
H           92.77       -4.67       63.48       
H           90.14       -6.75       59.91       
H           82.04       -5.57       62.13       
H           84.98       -5.32       66.17       
H           85.17       -4.91       59.69       
H           83.58       -4.82       60.26       
H           84.84923    -3.7543     60.96966    
H           84.77       -7.15       59.74       
H           83.52       -7.37       60.96       
H           85.17       -8.06187    61.29       
H           91.6        -5.17       65.36       
H           90.56       -6.34       65.39       
H           90.08472    -4.82472    66.16898    
H           89.14       -2.9        64.53       
H           90.91       -2.77       64.38       
H           89.99175    -2.6927     62.9354     
H           79.83       -5.0        63.96       
H           94.9        -4.67       61.5        
S           82.18       -4.75       66.82       
C           80.74       -4.9        64.59       
C           80.72       -4.47       65.86       
C           97.93       -5.47       57.05       
C           97.77       -4.46       58.04       
C           97.02       -6.55       57.12       
N           98.65       -3.45       58.36       
N           96.72       -3.42       59.84       
S           98.05       -2.56       59.61       
H           95.35       -7.4        57.97       
H           97.13       -7.44       56.47       
C           95.92       -6.49       57.96       
C           96.64       -4.46       58.98       
C           95.66       -5.52       58.86       
C           104.44      -3.74       41.98       
C           103.24      -4.34       42.22       
S           105.06      -2.95       43.38       
C           101.31      -5.54       47.93       
C           102.33      -4.52       47.83       
C           102.97      -3.95       48.94       
C           102.48      -4.2        50.15       
C           101.47      -5.23       50.33       
C           100.9       -5.9        49.2        
C           102.86      -3.53       51.47       
C           101.86      -4.27       52.42       
C           101.17      -5.32       51.77       
C           100.99      -6.09       46.51       
C           101.75      -5.1        45.62       
C           102.63      -4.35       46.43       
C           101.5       -4.06       53.76       
C           100.54      -4.86       54.37       
C           99.94       -5.91       53.67       
C           100.23      -6.13       52.32       
C           101.78      -5.0        44.28       
C           102.88      -4.41       43.6        
C           103.75      -3.68       44.34       
C           103.66      -3.54       45.73       
C           104.38      -3.92       51.66       
C           102.65      -2.0        51.18       
C           101.48      -7.55       46.41       
C           99.48       -5.96       46.23       
H           100.21      -6.7        49.34       
H           103.67      -3.15       48.79       
H           101.07      -5.51       43.64       
H           104.36      -2.98       46.35       
H           101.85      -3.2        54.34       
H           99.7        -6.87       51.77       
H           104.97      -3.29       50.91       
H           104.57      -4.92       51.22       
H           104.6965    -3.92719    52.70301    
H           103.31      -1.69       50.44       
H           103.02      -1.55       52.02       
H           101.59735   -1.79649    50.98351    
H           98.92       -6.82       46.62       
H           99.22       -5.83       45.18       
H           98.96319    -5.06797    46.58398    
H           100.8       -8.23       47.0        
H           101.39      -7.9        45.42       
H           102.46758   -7.73341    46.83325    
H           100.37      -4.0        56.37       
H           102.67      -4.82       41.39       
S           98.81       -6.79       54.68       
C           99.95       -4.73       55.67       
C           98.91       -5.54       55.95       
C           105.46      -2.03       37.99       
C           106.49      -2.27       39.02       
C           104.24      -2.5        38.38       
N           107.75      -1.75       39.04       
N           107.27      -3.05       41.14       
S           108.48      -2.17       40.47       
H           102.89      -3.12       40.02       
H           103.37      -2.22       37.74       
C           103.95      -3.01       39.72       
C           106.24      -2.9        40.29       
C           104.9       -3.3        40.63       
C           103.03      9.1         26.21       
C           102.18      8.05        26.51       
S           104.51      9.05        27.14       
C           103.73      3.43        30.1        
C           104.59      4.52        30.13       
C           105.76      4.58        30.96       
C           105.88      3.53        31.88       
C           105.02      2.38        31.84       
C           103.95      2.31        30.95       
C           106.9       3.3         33.0        
C           106.53      1.88        33.51       
C           105.3       1.47        32.96       
C           102.66      3.56        28.97       
C           102.93      5.03        28.57       
C           104.11      5.54        29.17       
C           107.08      1.23        34.59       
C           106.37      0.14        35.15       
C           105.13      -0.14       34.67       
C           104.56      0.42        33.52       
C           102.19      5.81        27.67       
C           102.76      7.04        27.35       
C           103.98      7.56        27.85       
C           104.65      6.77        28.77       
C           108.37      3.37        32.54       
C           106.73      4.27        34.2        
C           102.94      2.65        27.73       
C           101.19      3.39        29.49       
H           103.29      1.39        30.94       
H           106.55      5.33        30.89       
H           101.22      5.52        27.4        
H           105.57      7.13        29.32       
H           107.81      1.77        35.22       
H           103.71      0.01        33.06       
H           108.67      4.35        32.13       
H           109.03      3.2         33.41       
H           108.62775   2.58959     31.82402    
H           105.73      4.2         34.61       
H           107.45      4.03        34.98       
H           106.9377    5.32232     34.00615    
H           100.53      3.61        28.68       
H           101.01      3.96        30.37       
H           100.93128   2.34812     29.6788     
H           102.92      1.67        28.01       
H           102.12      2.81        27.04       
H           103.87046   2.90966     27.2251     
H           107.49      -0.42       37.04       
H           101.35      7.8         25.94       
S           104.3       -1.34       35.64       
C           106.67      -0.57       36.38       
C           105.64      -1.26       36.79       
C           102.11      12.6        23.66       
C           103.14      11.71       23.3        
C           101.44      12.12       24.79       
N           103.92      11.86       22.23       
N           104.52      9.86        23.71       
S           104.97      10.67       22.32       
H           101.14      10.8        26.52       
H           100.52      12.66       25.11       
C           101.76      11.02       25.66       
C           103.46      10.53       24.12       
C           102.7       10.21       25.29       
C           91.45       19.5        13.49       
C           92.67       19.17       13.13       
S           91.36       19.98       15.17       
C           96.99       17.51       16.94       
C           95.99       18.37       17.52       
C           95.96       18.53       18.93       
C           96.87       17.81       19.71       
C           97.85       17.01       19.06       
C           97.96       16.92       17.72       
C           97.02       17.71       21.22       
C           98.29       16.79       21.37       
C           98.65       16.34       20.11       
C           97.06       17.84       15.47       
C           95.7        18.43       15.24       
C           95.03       18.74       16.46       
C           98.89       16.31       22.53       
C           99.86       15.33       22.5        
C           100.27      14.88       21.15       
C           99.65       15.35       19.97       
C           94.99       18.52       14.02       
C           93.66       19.11       14.14       
C           93.02       19.43       15.36       
C           93.73       19.22       16.54       
C           97.32       19.06       21.81       
C           95.89       17.01       21.92       
C           98.16       18.85       15.21       
C           97.28       16.6        14.58       
H           98.76       16.31       17.29       
H           95.24       19.1        19.42       
H           95.3        17.9        13.17       
H           93.31       19.42       17.53       
H           98.67       16.86       23.45       
H           99.89       14.89       18.98       
H           96.55       19.81       21.81       
H           97.6        18.84       22.89       
H           98.19757    19.53142    21.36759    
H           95.88       15.97       21.57       
H           96.12       16.98       22.98       
H           94.91664    17.48297    21.78976    
H           98.32       16.23       14.54       
H           97.24       16.85       13.57       
H           96.58943    15.77416    14.75086    
H           98.91       18.44       14.59       
H           98.56       19.05       16.18       
H           97.86869    19.83052    14.83342    
H           100.58      14.88       24.54       
H           92.83       18.85       12.1        
S           101.56      13.68       21.19       
C           100.68      14.68       23.49       
C           101.6       13.75       22.96       
C           87.76       18.96       11.31       
C           88.67       17.94       11.36       
C           88.11       20.13       11.84       
N           88.51       16.73       10.88       
N           90.48       16.84       12.22       
S           89.71       15.72       11.32       
H           89.72       21.29       12.71       
H           87.36       20.93       11.79       
C           89.42       20.31       12.37       
C           89.92       18.05       12.07       
C           90.25       19.31       12.74       
C           71.73       15.88       9.15        
C           72.33       16.93       8.41        
S           72.93       14.98       9.98        
C           78.42       17.86       8.67        
C           77.88       16.96       9.66        
C           78.67       16.34       10.65       
C           79.99       16.75       10.72       
C           80.56       17.61       9.73        
C           79.76       18.15       8.67        
C           80.95       16.04       11.58       
C           82.15       16.78       11.17       
C           81.94       17.71       10.1        
C           77.26       18.52       7.87        
C           76.01       17.88       8.46        
C           76.47       16.86       9.39        
C           83.38       16.62       11.66       
C           84.4        17.57       11.25       
C           84.15       18.37       10.07       
C           82.91       18.39       9.47        
C           74.7        17.96       8.05        
C           73.78       17.07       8.59        
C           74.21       16.04       9.51        
C           75.57       15.96       9.95        
C           80.66       16.32       13.1        
C           81.06       14.54       11.26       
C           77.44       20.06       8.26        
C           77.25       18.25       6.34        
H           80.23       18.74       7.91        
H           78.29       15.69       11.42       
H           74.33       18.74       7.34        
H           75.89       15.27       10.72       
H           83.5        16.16       12.64       
H           82.65       18.96       8.53        
H           81.18       15.59       13.72       
H           79.59       16.1        13.25       
H           80.77898    17.36285    13.39396    
H           80.1        14.08       11.07       
H           81.51       13.94       11.97       
H           81.62636    14.33723    10.35103    
H           76.92       19.03       5.8         
H           76.62       17.44       6.17        
H           78.27265    18.07034    6.00833     
H           77.73       20.67       7.38        
H           78.27       20.14       8.98        
H           76.56854    20.41682    8.80895     
H           86.24       17.05       12.42       
H           71.74       17.59       7.78        
S           85.49       19.48       9.8         
C           85.73       17.66       11.67       
C           86.41       18.6        10.98       
C           67.5        14.74       9.76        
C           67.81       16.0        9.19        
C           68.58       13.93       9.87        
N           66.83       16.91       8.91        
N           69.24       17.69       8.35        
S           67.68       18.28       8.47        
H           70.63       13.57       9.98        
H           68.43       12.9        10.17       
C           69.93       14.34       9.73        
C           69.22       16.45       8.91        
C           70.31       15.56       9.23        
C           53.5        7.98        14.94       
C           54.63       7.25        14.88       
S           53.46       9.16        13.53       
C           59.77       9.22        12.45       
C           58.55       9.83        11.87       
C           58.56       10.94       11.07       
C           59.76       11.53       10.76       
C           60.94       10.96       11.32       
C           60.92       9.82        12.12       
C           60.05       12.91       10.11       
C           61.62       12.91       10.11       
C           62.1        11.83       10.96       
C           59.44       8.07        13.37       
C           57.86       8.04        13.29       
C           57.38       9.16        12.48       
C           62.49       13.84       9.54        
C           63.83       13.7        9.94        
C           64.23       12.71       10.84       
C           63.42       11.76       11.35       
C           56.97       7.36        14.04       
C           55.59       7.76        14.01       
C           55.12       8.77        13.25       
C           56.02       9.52        12.44       
C           59.36       13.05       8.67        
C           59.71       14.12       10.98       
C           59.95       6.71        12.89       
C           59.84       8.28        14.84       
H           61.82       9.58        12.67       
H           57.63       11.32       10.66       
H           57.22       6.57        14.71       
H           55.67       10.4        11.99       
H           62.1        14.61       8.84        
H           63.68       11.03       12.03       
H           58.27       13.15       8.71        
H           59.72       13.99       8.26        
H           59.6797     12.2438     8.00975     
H           60.23       13.93       11.94       
H           60.01       15.06       10.52       
H           58.64526    14.22719    11.18723    
H           60.99       8.22        14.82       
H           59.44       7.55        15.59       
H           59.49443    9.26141     15.16483    
H           59.86       5.99        13.72       
H           60.98       6.75        12.48       
H           59.33263    6.29132     12.09523    
H           64.89       15.37       8.84        
H           54.92       6.46        15.57       
S           65.95       12.78       11.07       
C           64.91       14.54       9.54        
C           66.14       14.18       10.01       
C           50.08       8.13        17.54       
C           50.96       7.05        17.64       
C           50.29       8.99        16.55       
N           50.98       6.02        18.53       
N           52.82       5.85        16.93       
S           52.3        5.08        18.31       
H           51.46       9.59        14.84       
H           49.6        9.78        16.42       
C           51.34       8.84        15.58       
C           52.13       6.92        16.8        
C           52.39       7.91        15.78       
C           39.62       15.04       28.26       
C           39.67       15.38       26.95       
S           40.54       13.6        28.69       
C           43.2        12.38       23.08       
C           43.35       12.01       24.48       
C           44.33       11.12       24.84       
C           45.08       10.54       23.83       
C           44.86       10.83       22.46       
C           43.93       11.79       22.04       
C           46.25       9.56        23.99       
C           46.5        9.24        22.48       
C           45.75       10.01       21.63       
C           42.04       13.27       22.93       
C           41.83       13.71       24.38       
C           42.4        12.78       25.24       
C           47.49       8.42        21.91       
C           47.8        8.54        20.48       
C           47.02       9.44        19.74       
C           45.9        10.11       20.24       
C           40.84       14.58       24.79       
C           40.54       14.53       26.19       
C           41.1        13.52       27.0        
C           42.07       12.68       26.54       
C           47.43       10.22       24.72       
C           45.85       8.24        24.69       
C           42.28       14.5        21.98       
C           40.68       12.54       22.61       
H           43.72       12.1        20.99       
H           44.41       10.72       25.84       
H           40.32       15.19       24.13       
H           42.59       11.94       27.22       
H           48.03       7.72        22.45       
H           45.19       10.73       19.62       
H           46.97       10.64       25.58       
H           48.18       9.52        24.99       
H           47.98045    10.97776    24.1624     
H           45.12       7.73        24.11       
H           46.72       7.6         24.71       
H           45.52514    8.28332     25.72956    
H           40.05       13.39       22.44       
H           40.47       11.94       23.5        
H           40.62358    11.97581    21.67908    
H           42.66       14.13       21.03       
H           41.31       15.02       21.74       
H           42.85457    15.26848    22.49711    
H           49.54       7.22        20.26       
H           39.06       16.13       26.49       
S           47.7        9.39        18.07       
C           48.85       7.87        19.76       
C           49.02       8.36        18.51       
C           37.36       17.05       31.41       
C           37.78       17.74       30.25       
C           37.55       15.71       31.36       
N           37.67       19.04       29.98       
N           38.91       17.93       28.15       
S           38.21       19.31       28.5        
H           38.54       14.03       30.47       
H           37.14       15.07       32.18       
C           38.37       15.07       30.43       
C           38.53       17.09       29.16       
C           38.9        15.73       29.29       
H           41.93       10.28       112.78      
H           36.9        17.54       32.23       
