612

C           22.7        3.88        70.46       
C           22.65       3.97        69.11       
S           24.13       3.13        71.06       
C           27.74       3.36        65.85       
C           27.85       2.93        67.18       
C           29.03       2.39        67.67       
C           30.05       2.26        66.77       
C           29.99       2.82        65.45       
C           28.8        3.39        64.98       
C           31.46       1.64        66.95       
C           32.1        1.88        65.62       
C           31.32       2.68        64.8        
C           26.28       3.68        65.52       
C           25.69       3.67        66.87       
C           26.59       3.15        67.83       
C           33.4        1.49        65.27       
C           33.86       1.91        64.01       
C           32.98       2.68        63.15       
C           31.69       3.05        63.5        
C           24.34       3.9         67.14       
C           23.93       3.72        68.51       
C           24.85       3.15        69.43       
C           26.17       2.78        69.14       
C           32.36       2.3         68.02       
C           31.41       0.05        67.18       
C           26.1        5.03        64.76       
C           25.63       2.47        64.82       
H           28.65       3.78        63.96       
H           29.07       1.93        68.66       
H           23.69       4.3         66.39       
H           26.83       2.4         69.94       
H           34.09       0.89        65.88       
H           31.06       3.64        62.78       
H           31.99       2.06        69.0        
H           33.38       1.83        67.9        
H           32.28845    3.38755     68.00569    
H           30.78       -0.35       66.35       
H           32.4        -0.33       67.25       
H           30.95564    -0.22687    68.13131    
H           24.56       2.49        64.74       
H           25.86       1.55        65.42       
H           25.91997    2.33882     63.7775     
H           26.68       5.12        63.79       
H           25.03       5.2         64.49       
H           26.3321     5.89012     65.38803    
H           35.88       1.0         63.77       
H           21.77       4.28        68.52       
S           33.73       3.02        61.55       
C           35.04       1.59        63.31       
C           35.05       1.97        61.99       
C           19.29       3.93        73.25       
C           20.65       4.13        73.68       
C           19.23       3.55        71.9        
N           20.96       4.37        74.96       
N           22.95       4.55        73.39       
S           22.57       4.72        74.92       
H           20.18       3.26        70.06       
H           18.3        3.09        71.51       
C           20.35       3.61        71.02       
C           21.77       4.23        72.77       
C           21.61       3.97        71.4        
C           5.94        0.0         82.44       
C           5.96        0.12        81.06       
S           7.5         0.51        83.11       
C           10.64       1.9         77.68       
C           10.84       1.88        79.11       
C           12.08       2.2         79.67       
C           13.09       2.45        78.79       
C           12.94       2.41        77.37       
C           11.7        2.1         76.81       
C           14.54       2.68        79.25       
C           15.17       3.04        77.82       
C           14.23       2.71        76.84       
C           9.22        1.41        77.31       
C           8.71        1.19        78.73       
C           9.66        1.46        79.76       
C           16.48       3.4         77.46       
C           16.85       3.44        76.09       
C           15.81       3.13        75.11       
C           14.51       2.8         75.45       
C           7.47        0.78        79.14       
C           7.13        0.54        80.5        
C           8.14        0.74        81.47       
C           9.4         1.22        81.08       
C           14.63       3.84        80.3        
C           15.33       1.43        79.76       
C           8.4         2.5         76.66       
C           9.13        0.09        76.5        
H           11.61       2.24        75.74       
H           12.17       2.26        80.75       
H           6.71        0.61        78.36       
H           10.03       1.64        81.82       
H           17.25       3.49        78.28       
H           13.72       2.63        74.76       
H           14.18       3.53        81.23       
H           15.67       4.03        80.46       
H           14.10451    4.73475     79.96625    
H           15.12       1.44        80.84       
H           16.38       1.57        79.66       
H           15.05068    0.46634     79.33404    
H           9.59        0.29        75.52       
H           8.14        -0.23       76.54       
H           9.68031     -0.74591    76.93189    
H           8.69        2.61        75.63       
H           7.31        2.13        76.61       
H           8.51973     3.42963     77.21637    
H           18.94       3.79        76.21       
H           5.01        0.03        80.47       
S           16.53       3.36        73.48       
C           18.1        3.77        75.51       
C           18.15       3.72        74.14       
C           2.48        0.9         85.01       
C           3.47        0.04        85.47       
C           2.54        1.16        83.65       
N           3.6         -0.29       86.74       
N           5.48        -1.14       85.21       
S           4.94        -1.18       86.8        
H           3.53        1.12        81.76       
H           1.82        1.88        83.17       
C           3.59        0.78        82.76       
C           4.58        -0.31       84.61       
C           4.74        0.1         83.23       
C           -7.93       10.56       93.69       
C           -7.58       10.92       92.46       
S           -7.5        8.92        94.14       
C           -4.0        7.03        89.2        
C           -4.54       6.51        90.38       
C           -4.15       5.22        90.82       
C           -3.36       4.4         90.09       
C           -2.82       4.99        88.91       
C           -3.16       6.23        88.45       
C           -2.65       3.09        90.46       
C           -1.71       2.93        89.27       
C           -1.76       4.09        88.43       
C           -4.62       8.42        88.89       
C           -5.5        8.68        90.09       
C           -5.33       7.61        90.98       
C           -0.8        1.91        89.05       
C           0.04        2.01        87.92       
C           -0.06       3.16        87.09       
C           -1.0        4.16        87.33       
C           -6.24       9.78        90.49       
C           -6.84       9.84        91.76       
C           -6.7        8.66        92.59       
C           -5.91       7.57        92.22       
C           -1.79       3.38        91.7        
C           -3.58       1.86        90.54       
C           -3.55       9.5         88.71       
C           -5.6        8.3         87.62       
H           -2.65       6.61        87.56       
H           -4.62       4.87        91.74       
H           -6.18       10.65       89.82       
H           -5.85       6.65        92.82       
H           -0.81       0.98        89.68       
H           -1.12       5.0         86.69       
H           -2.47       3.38        92.61       
H           -1.21       2.44        91.82       
H           -1.04032    4.16504     91.60099    
H           -4.23       1.94        89.64       
H           -2.98       0.96        90.51       
H           -4.27869    1.92417     91.37415    
H           -6.38       9.12        87.66       
H           -6.16       7.33        87.68       
H           -5.03431    8.17827     86.69627    
H           -2.95       9.19        87.81       
H           -3.91       10.44       88.21       
H           -2.84432    9.59174     89.53565    
H           1.4         0.26        87.76       
H           -7.86       11.86       92.01       
S           0.78        2.99        85.53       
C           1.04        1.16        87.31       
C           1.47        1.46        86.0        
C           -9.47       12.89       97.03       
C           -9.33       13.45       95.76       
C           -9.04       11.62       97.19       
N           -9.75       14.72       95.44       
N           -9.06       13.36       93.54       
S           -9.76       14.8        93.85       
H           -7.94       9.95        96.36       
H           -9.14       11.08       98.11       
C           -8.43       10.9        96.13       
C           -8.95       12.62       94.67       
C           -8.53       11.33       94.8        
C           -15.36      20.11       110.54      
C           -15.45      18.78       110.35      
S           -14.65      20.97       109.14      
C           -12.83      15.92       105.73      
C           -12.58      17.28       105.76      
C           -11.64      17.92       104.88      
C           -11.3       17.25       103.73      
C           -11.65      15.88       103.61      
C           -12.33      15.24       104.61      
C           -10.41      17.73       102.54      
C           -10.57      16.57       101.64      
C           -11.23      15.43       102.27      
C           -13.84      15.47       106.74      
C           -14.12      16.8        107.41      
C           -13.36      17.91       106.76      
C           -10.09      16.48       100.36      
C           -10.13      15.2        99.78       
C           -10.73      14.08       100.42      
C           -11.32      14.17       101.7       
C           -14.87      17.03       108.56      
C           -14.89      18.36       109.05      
C           -14.28      19.43       108.33      
C           -13.48      19.27       107.19      
C           -10.96      19.05       101.9       
C           -8.87       17.76       102.91      
C           -15.13      14.91       105.98      
C           -13.09      14.49       107.7       
H           -12.6       14.21       104.46      
H           -11.41      18.95       104.97      
H           -15.37      16.27       109.08      
H           -13.07      20.07       106.55      
H           -9.65       17.37       99.89       
H           -11.69      13.26       102.2       
H           -10.86      19.96       102.5       
H           -10.38      19.2        101.05      
H           -11.99854   18.98509    101.57546   
H           -8.55       16.81       103.11      
H           -8.37       18.19       102.04      
H           -8.62311    18.40466    103.75354   
H           -13.81      14.46       108.48      
H           -12.1       14.9        107.99      
H           -12.92367   13.4851     107.3119    
H           -14.93      13.93       105.57      
H           -15.42      15.54       105.14      
H           -15.96225   14.73928    106.66287   
H           -9.14       15.52       97.89       
H           -15.71      18.11       111.12      
S           -10.51      12.65       99.44       
C           -9.67       14.83       98.56       
C           -9.89       13.58       98.18       
C           -15.26      22.33       114.32      
C           -14.4       21.18       114.07      
C           -16.17      22.6        113.35      
N           -13.41      20.74       114.93      
N           -13.42      19.49       112.67      
S           -12.51      19.66       114.06      
H           -17.0       22.16       111.41      
H           -16.98      23.38       113.44      
C           -16.2       21.88       112.11      
C           -14.37      20.47       112.82      
C           -15.31      20.82       111.8       
C           -8.36       36.6        118.1       
C           -7.77       35.4        118.38      
S           -10.02      36.32       117.58      
C           -10.51      30.03       117.73      
C           -11.35      31.16       117.62      
C           -12.69      30.98       117.3       
C           -13.26      29.71       117.23      
C           -12.32      28.65       117.33      
C           -10.93      28.78       117.59      
C           -14.69      29.35       116.73      
C           -14.51      27.81       116.71      
C           -13.11      27.44       117.01      
C           -9.11       30.5        118.05      
C           -9.27       32.04       118.1       
C           -10.54      32.39       117.69      
C           -15.38      26.92       116.25      
C           -14.91      25.61       116.13      
C           -13.58      25.23       116.39      
C           -12.65      26.18       116.85      
C           -8.34       32.96       118.29      
C           -8.63       34.32       118.18      
C           -9.95       34.6        117.85      
C           -10.93      33.73       117.43      
C           -15.72      29.73       117.79      
C           -15.19      29.79       115.35      
C           -8.67       30.01       119.48      
C           -8.06       29.97       117.02      
H           -10.21      27.97       117.43      
H           -13.23      31.91       117.05      
H           -7.37       32.7        118.64      
H           -11.96      34.04       117.16      
H           -16.42      27.13       116.07      
H           -11.57      25.95       116.99      
H           -16.81      29.73       117.41      
H           -15.39      30.67       118.08      
H           -15.6709    29.05664    118.64573   
H           -14.53      29.42       114.64      
H           -16.13      29.27       115.08      
H           -15.3622    30.86453    115.28801   
H           -7.9        28.89       117.15      
H           -7.21       30.61       117.09      
H           -8.44687    30.06489    116.00539   
H           -8.5        28.94       119.42      
H           -7.71       30.41       119.83      
H           -9.39371    30.01703    120.29505   
H           -16.64      24.54       115.17      
H           -6.74       35.28       118.63      
S           -13.22      23.55       115.92      
C           -15.59      24.45       115.6       
C           -14.86      23.32       115.34      
C           -6.72       40.76       118.24      
C           -5.86       39.59       118.29      
C           -7.98       40.44       118.05      
N           -4.55       39.58       118.61      
N           -5.36       37.33       118.2       
S           -3.95       38.09       118.65      
H           -9.6        39.0        117.92      
H           -8.72       41.29       118.02      
C           -8.5        39.13       117.97      
C           -6.35       38.24       118.14      
C           -7.76       37.97       118.06      
C           -2.4        52.38       129.3       
C           -3.65       52.2        128.72      
S           -1.39       51.09       128.65      
C           -5.17       48.42       124.13      
C           -3.79       48.38       124.46      
C           -2.83       47.63       123.74      
C           -3.31       46.89       122.65      
C           -4.71       46.84       122.38      
C           -5.64       47.6        123.1       
C           -2.52       45.97       121.66      
C           -3.7        45.43       120.85      
C           -4.97       45.79       121.39      
C           -5.96       49.29       125.09      
C           -4.84       50.03       125.84      
C           -3.6        49.27       125.69      
C           -3.66       44.43       119.9       
C           -4.85       43.69       119.65      
C           -6.12       44.13       120.12      
C           -6.2        45.13       121.07      
C           -4.92       50.98       126.84      
C           -3.79       51.27       127.72      
C           -2.6        50.53       127.53      
C           -2.48       49.55       126.56      
C           -1.52       46.89       120.86      
C           -1.72       44.82       122.29      
C           -6.86       50.29       124.31      
C           -6.68       48.33       126.12      
H           -6.72       47.43       123.05      
H           -1.77       47.53       124.05      
H           -5.69       51.79       126.96      
H           -1.53       49.09       126.37      
H           -2.73       44.29       119.31      
H           -7.11       45.3        121.68      
H           -0.54       46.72       121.43      
H           -1.73       47.99       120.98      
H           -1.35364    46.64408    119.81122   
H           -1.14       45.42       122.99      
H           -1.03       44.37       121.56      
H           -2.33924    44.1515     122.88813   
H           -7.32       48.97       126.66      
H           -5.97       47.88       126.84      
H           -7.38941    47.60626    125.71872   
H           -7.45       49.78       123.59      
H           -7.56       50.68       125.0       
H           -6.33127    51.08309    123.78127   
H           -4.17       41.96       118.43      
H           -4.44       52.88       128.98      
S           -7.4        43.04       119.52      
C           -5.0        42.55       118.76      
C           -6.29       42.15       118.6       
C           -1.29       54.91       132.72      
C           -2.08       55.45       131.65      
C           -0.87       53.63       132.54      
N           -2.64       56.66       131.73      
N           -3.28       55.4        129.67      
S           -3.64       56.77       130.44      
H           -1.02       51.78       131.42      
H           -0.23       53.18       133.26      
C           -1.25       52.84       131.38      
C           -2.4        54.67       130.48      
C           -1.93       53.34       130.28      
C           10.6        62.25       140.73      
C           9.98        62.88       139.69      
S           9.61        61.05       141.55      
C           4.75        60.78       137.44      
C           5.19        60.12       138.63      
C           4.59        58.94       139.07      
C           3.51        58.42       138.38      
C           3.08        59.1        137.24      
C           3.6         60.3        136.84      
C           2.68        57.15       138.68      
C           1.79        57.22       137.41      
C           2.0         58.28       136.63      
C           5.62        61.96       137.09      
C           6.68        61.79       138.24      
C           6.39        60.75       139.12      
C           0.83        56.28       137.03      
C           0.28        56.38       135.77      
C           0.51        57.49       134.98      
C           1.3         58.54       135.47      
C           7.82        62.53       138.37      
C           8.7         62.22       139.43      
C           8.4         61.2        140.35      
C           7.28        60.42       140.17      
C           3.49        55.81       138.73      
C           1.67        57.32       139.88      
C           6.35        61.83       135.76      
C           4.97        63.36       137.22      
H           3.13        60.86       136.03      
H           5.08        58.45       139.91      
H           8.14        63.23       137.59      
H           6.99        59.66       140.88      
H           0.51        55.46       137.76      
H           1.51        59.38       134.84      
H           4.14        55.71       139.56      
H           2.77        55.0        138.83      
H           4.11939     55.60259    137.86458   
H           1.12        58.21       139.63      
H           0.94        56.46       139.83      
H           2.18898     57.40304    140.83492   
H           4.5         63.55       136.24      
H           5.68        64.21       137.37      
H           4.31804     63.46747    138.08689   
H           5.66        61.92       134.96      
H           7.1         62.63       135.68      
H           6.91256     60.90427    135.63894   
H           -0.67       54.43       135.5       
H           10.39       63.64       139.03      
S           -0.27       57.41       133.38      
C           -0.39       55.37       135.07      
C           -0.66       55.72       133.78      
C           14.71       62.67       142.53      
C           14.36       63.24       141.28      
C           13.62       62.05       143.1       
N           15.19       63.86       140.45      
N           12.95       63.71       139.47      
S           14.41       64.1        139.0       
H           11.58       61.41       143.09      
H           13.77       61.52       144.05      
C           12.31       61.94       142.51      
C           13.0        63.18       140.69      
C           11.93       62.49       141.26      
C           21.31       71.3        153.99      
C           21.59       71.7        152.74      
S           20.84       69.63       154.04      
C           20.6        67.86       148.06      
C           20.17       67.45       149.38      
C           19.4        66.24       149.66      
C           19.29       65.4        148.57      
C           19.62       65.79       147.21      
C           20.29       66.99       146.96      
C           18.91       63.98       148.6       
C           18.57       63.74       147.15      
C           18.96       64.86       146.35      
C           21.18       69.29       148.09      
C           21.03       69.61       149.59      
C           20.49       68.51       150.32      
C           17.78       62.84       146.53      
C           17.31       63.07       145.25      
C           17.79       64.13       144.46      
C           18.69       65.06       145.03      
C           21.42       70.72       150.31      
C           21.32       70.72       151.76      
C           20.76       69.56       152.31      
C           20.25       68.43       151.65      
C           20.11       63.08       149.05      
C           17.64       63.76       149.51      
C           22.65       69.15       147.68      
C           20.4        70.34       147.27      
H           20.6        67.32       145.97      
H           19.05       66.01       150.62      
H           21.91       71.51       149.79      
H           19.76       67.61       152.19      
H           17.32       62.01       147.03      
H           18.95       65.89       144.55      
H           19.78       62.25       149.66      
H           20.75       63.62       149.67      
H           20.66549    62.60387    148.24202   
H           17.82       64.17       150.57      
H           17.38       62.66       149.62      
H           16.71147    64.17427    149.11716   
H           20.83       71.29       147.48      
H           19.39       70.48       147.68      
H           20.4        70.12623    146.20117   
H           22.68       68.64       146.67      
H           23.11       68.43       148.41      
H           23.25707    70.05354    147.62353   
H           15.91       61.5        144.92      
H           21.79       72.73       152.51      
S           16.97       64.29       142.9       
C           16.38       62.39       144.5       
C           15.9        62.92       143.32      
C           22.17       73.02       158.03      
C           22.73       73.62       156.83      
C           21.26       72.01       157.8       
N           23.75       74.46       156.78      
N           23.21       73.63       154.52      
S           24.09       74.81       155.2       
H           20.1        70.8        156.3       
H           20.81       71.46       158.6       
C           20.93       71.59       156.42      
C           22.48       73.04       155.48      
C           21.55       71.97       155.25      
C           33.05       65.9        167.19      
C           31.76       65.55       167.32      
S           33.32       67.48       166.51      
C           27.46       69.13       164.85      
C           28.75       69.73       164.86      
C           28.96       71.04       164.31      
C           27.9        71.72       163.75      
C           26.66       71.06       163.73      
C           26.37       69.85       164.34      
C           27.87       73.01       162.86      
C           26.45       72.94       162.27      
C           25.8        71.75       162.78      
C           27.46       67.75       165.54      
C           28.92       67.67       165.97      
C           29.6        68.83       165.68      
C           25.74       73.86       161.45      
C           24.52       73.37       160.91      
C           23.92       72.19       161.37      
C           24.5        71.4        162.3       
C           29.5        66.6        166.6       
C           30.91       66.62       166.76      
C           31.59       67.74       166.36      
C           31.0        68.88       165.86      
C           28.0        74.23       163.74      
C           29.01       73.02       161.79      
C           26.44       67.87       166.7       
C           27.05       66.55       164.58      
H           25.46       69.32       164.17      
H           29.94       71.47       164.4       
H           29.06       65.71       166.9       
H           31.63       69.7        165.53      
H           26.25       74.81       161.19      
H           24.03       70.47       162.64      
H           28.38       75.06       163.08      
H           28.8        73.97       164.42      
H           27.07793    74.49863    164.25549   
H           29.99       72.97       162.33      
H           28.98       74.0        161.29      
H           28.89997    72.25664    161.01976   
H           27.23       65.58       165.02      
H           27.87       66.56       163.84      
H           26.05229    66.53585    164.14129   
H           26.31       66.86       167.11      
H           25.43       68.24       166.31      
H           26.75219    68.57953    167.46629   
H           24.13       74.81       159.25      
H           31.41       64.58       167.64      
S           22.46       71.84       160.45      
C           23.72       74.01       159.84      
C           22.74       73.15       159.36      
C           36.5        63.3        168.06      
C           35.57       63.6        169.06      
C           36.25       64.0        166.93      
N           35.59       63.13       170.33      
N           33.59       64.64       169.85      
S           34.27       63.78       171.1       
H           35.02       65.28       165.72      
H           36.84       63.75       166.07      
C           35.16       64.91       166.71      
C           34.44       64.53       168.84      
C           34.18       65.17       167.61      
C           50.84       55.0        167.02      
C           50.46       56.06       166.29      
S           49.63       54.65       168.31      
C           45.12       59.01       166.7       
C           45.29       57.95       167.63      
C           44.37       57.78       168.69      
C           43.28       58.59       168.79      
C           43.05       59.5        167.74      
C           44.01       59.77       166.77      
C           42.17       58.61       169.86      
C           41.21       59.61       169.14      
C           41.8        60.17       167.95      
C           46.42       59.22       165.95      
C           47.2        58.01       166.38      
C           46.52       57.23       167.3       
C           40.1        60.14       169.66      
C           39.37       61.07       168.9       
C           39.94       61.56       167.73      
C           41.2        61.21       167.26      
C           48.45       57.56       165.87      
C           49.15       56.56       166.55      
C           48.51       55.86       167.59      
C           47.13       56.17       167.98      
C           41.52       57.2        170.05      
C           42.57       59.29       171.16      
C           46.02       59.29       164.48      
C           47.15       60.55       166.32      
H           43.89       60.62       166.12      
H           44.51       56.99       169.38      
H           48.89       57.93       164.92      
H           46.63       55.69       168.8       
H           39.6        59.7        170.55      
H           41.57       61.52       166.27      
H           42.34       56.49       170.21      
H           40.95       57.2        170.96      
H           40.83971    56.92648    169.24347   
H           42.93       60.25       170.94      
H           41.77       59.37       171.81      
H           43.40363    58.79707    171.66018   
H           46.45       61.41       166.05      
H           47.31       60.46       167.44      
H           48.17179    60.68482    165.96521   
H           47.05       59.48       164.04      
H           45.44       60.21       164.15      
H           45.54105    58.35355    164.19406   
H           37.65       61.49       170.13      
H           51.07       56.43       165.43      
S           38.76       62.48       166.83      
C           38.13       61.71       169.14      
C           37.68       62.49       168.17      
C           54.49       52.42       167.28      
C           54.31       53.34       166.19      
C           53.37       52.38       168.06      
N           55.27       53.66       165.27      
N           53.17       55.08       165.07      
S           54.57       54.72       164.27      
H           51.42       52.92       168.71      
H           53.34       51.63       168.91      
C           52.21       53.19       167.98      
C           53.12       54.25       166.1       
C           52.01       54.11       167.02      
H           35.7        1.61        61.23       
H           55.44       51.94       167.51      
