612

C           1.61        29.24       30.77       
C           0.68        28.51       30.09       
S           0.84        30.18       32.06       
C           -5.3        29.01       31.08       
C           -4.52       29.89       31.8        
C           -5.14       30.89       32.64       
C           -6.52       30.95       32.74       
C           -7.28       30.03       32.08       
C           -6.64       29.0        31.28       
C           -7.37       31.94       33.6        
C           -8.75       31.44       33.29       
C           -8.66       30.29       32.48       
C           -4.48       28.16       30.13       
C           -3.09       28.6        30.42       
C           -3.15       29.62       31.46       
C           -9.97       31.94       33.7        
C           -11.14      31.23       33.34       
C           -11.03      30.05       32.54       
C           -9.8        29.56       32.07       
C           -1.86       28.21       29.94       
C           -0.7        28.81       30.4        
C           -0.8        29.71       31.56       
C           -2.02       30.09       32.1        
C           -6.84       31.5        35.02       
C           -7.02       33.36       33.2        
C           -4.52       26.66       30.62       
C           -5.0        28.42       28.73       
H           -7.25       28.22       30.87       
H           -4.49       31.6        33.17       
H           -1.79       27.51       29.11       
H           -2.09       30.91       32.77       
H           -10.1       32.67       34.52       
H           -9.74       28.6        31.59       
H           -5.76       31.77       35.13       
H           -6.87       30.43       35.07       
H           -7.40479    31.84864    35.88462    
H           -5.97       33.43       33.15       
H           -7.4        34.12       33.89       
H           -7.34575    33.51926    32.17208    
H           -5.99       27.94       28.57       
H           -5.1        29.48       28.6        
H           -4.34878    28.05192    27.93721    
H           -5.58       26.44       30.77       
H           -4.19       25.96       29.82       
H           -4.03844    26.45463    31.57604    
H           -12.86      32.2        34.51       
H           0.89        27.81       29.29       
S           -12.59      29.34       32.29       
C           -12.52      31.45       33.79       
C           -13.43      30.54       33.37       
C           5.87        30.39       29.97       
C           5.32        29.23       29.32       
C           5.04        30.94       30.95       
N           5.86        28.58       28.24       
N           3.41        27.89       28.71       
S           4.65        27.59       27.69       
H           3.13        31.04       31.91       
H           5.42        31.8        31.5        
C           3.67        30.48       31.15       
C           3.87        28.88       29.55       
C           3.03        29.51       30.48       
C           18.27       40.31       25.72       
C           17.55       40.5        26.83       
S           17.68       38.99       24.74       
C           13.16       36.82       28.48       
C           13.61       36.6        27.14       
C           13.28       35.51       26.33       
C           12.34       34.62       26.84       
C           11.78       34.87       28.15       
C           12.17       35.94       28.93       
C           11.75       33.36       26.21       
C           10.63       33.09       27.22       
C           10.7        33.9        28.41       
C           14.0        37.91       29.25       
C           14.74       38.43       27.99       
C           14.61       37.57       26.91       
C           9.61        32.15       27.1        
C           8.81        31.95       28.23       
C           8.85        32.81       29.38       
C           9.82        33.82       29.48       
C           15.6        39.48       27.99       
C           16.51       39.57       26.96       
C           16.45       38.62       25.94       
C           15.44       37.67       25.81       
C           11.26       33.78       24.78       
C           12.85       32.29       26.07       
C           13.17       39.07       29.91       
C           14.87       37.2        30.31       
H           11.92       35.97       30.0        
H           13.73       35.46       25.33       
H           15.72       40.14       28.83       
H           15.37       37.07       24.94       
H           9.42        31.56       26.24       
H           9.73        34.64       30.19       
H           12.13       34.16       24.24       
H           10.57       34.59       24.85       
H           10.82979    32.98305    24.17347    
H           13.45       32.47       25.19       
H           12.46       31.31       25.81       
H           13.51715    32.26915    26.93173    
H           14.16       36.68       30.93       
H           15.32       37.89       30.95       
H           15.66123    36.56982    29.90388    
H           12.48       38.67       30.67       
H           13.83       39.8        30.36       
H           12.51113    39.57131    29.201      
H           7.38        30.51       27.5        
H           17.67       41.29       27.56       
S           7.63        32.41       30.51       
C           7.71        31.11       28.3        
C           7.02        31.17       29.45       
C           21.9        42.3        24.07       
C           21.05       42.89       25.09       
C           21.4        41.1        23.6        
N           21.39       43.93       25.79       
N           19.25       43.05       26.53       
S           20.25       44.29       26.91       
H           19.94       39.55       23.69       
H           22.1        40.56       22.93       
C           20.15       40.52       24.08       
C           19.8        42.34       25.57       
C           19.41       41.03       25.1        
C           36.39       44.2        29.15       
C           36.1        43.04       28.53       
S           35.4        45.59       28.59       
C           31.32       42.86       24.64       
C           31.68       44.19       25.04       
C           30.86       45.28       24.93       
C           29.58       45.05       24.43       
C           29.24       43.78       23.99       
C           30.11       42.71       24.0        
C           28.41       46.02       24.53       
C           27.42       45.08       24.0        
C           27.85       43.81       23.67       
C           32.47       41.84       24.79       
C           33.31       42.62       25.84       
C           32.94       44.0        25.78       
C           26.0        45.22       24.01       
C           25.17       44.12       23.81       
C           25.68       42.93       23.34       
C           27.05       42.73       23.22       
C           34.4        42.25       26.63       
C           35.06       43.19       27.5        
C           34.53       44.49       27.5        
C           33.54       44.91       26.59       
C           28.0        46.57       25.96       
C           28.67       47.17       23.55       
C           31.81       40.53       25.36       
C           33.11       41.6        23.4        
H           29.73       41.72       23.65       
H           31.06       46.22       25.31       
H           34.6        41.21       26.86       
H           33.31       46.01       26.57       
H           25.55       46.13       24.44       
H           27.48       41.82       22.87       
H           27.08       47.19       25.96       
H           28.79       47.26       26.32       
H           27.97889    45.78892    26.71997    
H           29.39       47.86       24.01       
H           27.65       47.51       23.5        
H           28.9869     46.86064    22.55402    
H           32.46       40.99       22.75       
H           33.15       42.61       22.89       
H           34.13154    41.22037    23.37929    
H           31.32       39.95       24.65       
H           31.07       40.76       26.14       
H           32.56443    39.86988    25.78799    
H           23.13       44.86       24.25       
H           36.41       42.03       28.85       
S           24.44       41.72       23.06       
C           23.78       44.04       24.0        
C           23.22       42.8        23.7        
C           39.71       44.66       32.17       
C           38.54       45.53       32.27       
C           39.63       43.72       31.15       
N           38.36       46.58       33.03       
N           36.58       46.34       31.38       
S           36.96       47.26       32.67       
H           38.64       42.73       29.52       
H           40.49       43.03       30.93       
C           38.5        43.54       30.3        
C           37.44       45.38       31.26       
C           37.39       44.32       30.24       
C           54.36       46.5        39.9        
C           54.24       45.91       38.68       
S           52.77       46.91       40.61       
C           48.88       45.11       35.96       
C           48.87       45.67       37.22       
C           47.69       46.15       37.73       
C           46.5        45.97       37.04       
C           46.53       45.36       35.8        
C           47.72       44.94       35.22       
C           45.07       46.5        37.28       
C           44.33       45.97       36.06       
C           45.19       45.21       35.23       
C           50.28       44.88       35.5        
C           51.1        45.26       36.73       
C           50.21       45.74       37.75       
C           42.97       46.06       35.86       
C           42.42       45.52       34.65       
C           43.32       44.83       33.82       
C           44.64       44.73       34.05       
C           52.48       45.2        37.05       
C           52.93       45.79       38.21       
C           52.0        46.24       39.19       
C           50.67       46.18       39.0        
C           44.5        46.04       38.61       
C           44.94       48.06       37.08       
C           50.41       43.37       35.09       
C           50.69       45.85       34.35       
H           47.78       44.71       34.13       
H           47.7        46.55       38.78       
H           53.21       45.09       36.27       
H           50.06       46.48       39.86       
H           42.31       46.51       36.58       
H           45.3        44.35       33.29       
H           44.88       46.49       39.53       
H           43.46       46.17       38.64       
H           44.69424    44.97529    38.73949    
H           45.22       48.25       36.03       
H           43.89       48.32       37.23       
H           45.55967    48.69408    37.71408    
H           50.39       45.46       33.34       
H           51.8        46.06       34.33       
H           50.18426    46.80529    34.49048    
H           50.63       43.34       34.0        
H           49.49       42.96       35.23       
H           51.26804    42.8807     35.55093    
H           40.29       45.95       34.74       
H           55.06       45.56       38.08       
S           42.45       44.19       32.42       
C           41.1        45.5        34.2        
C           40.9        44.87       32.99       
C           57.96       46.81       42.48       
C           57.91       45.77       41.52       
C           56.88       47.61       42.48       
N           58.76       44.88       41.27       
N           56.93       44.82       39.6        
S           58.31       44.1        39.84       
H           54.77       48.24       41.8        
H           56.91       48.44       43.24       
C           55.69       47.56       41.66       
C           56.78       45.76       40.59       
C           55.58       46.59       40.7        
C           70.15       49.32       53.39       
C           68.85       49.53       53.81       
S           70.29       48.86       51.74       
C           64.33       48.92       49.7        
C           65.62       48.67       49.21       
C           65.81       48.21       47.92       
C           64.76       47.88       47.1        
C           63.49       48.19       47.61       
C           63.26       48.76       48.89       
C           64.75       47.25       45.68       
C           63.28       47.42       45.34       
C           62.56       47.92       46.51       
C           64.38       48.93       51.23       
C           65.84       49.22       51.5        
C           66.55       48.87       50.31       
C           62.64       47.05       44.21       
C           61.27       47.14       44.1        
C           60.54       47.66       45.25       
C           61.19       48.0        46.44       
C           66.54       49.42       52.66       
C           67.89       49.33       52.71       
C           68.56       48.95       51.5        
C           67.97       48.82       50.23       
C           65.59       47.97       44.66       
C           64.96       45.71       45.75       
C           63.52       50.09       51.8        
C           63.99       47.55       51.81       
H           62.29       49.13       49.17       
H           66.88       48.08       47.49       
H           65.91       49.73       53.5        
H           68.45       48.62       49.36       
H           63.27       46.66       43.34       
H           60.66       48.34       47.27       
H           66.57       47.93       44.93       
H           65.56       47.39       43.75       
H           65.36059    49.02385    44.50228    
H           64.18       45.31       46.38       
H           64.85       45.3        44.8        
H           65.9279     45.39686    46.14143    
H           62.85       47.42       51.75       
H           64.44       46.75       51.27       
H           64.28013    47.35894    52.84316    
H           62.41       49.9        51.67       
H           63.68       50.26       52.9        
H           63.74149    51.04743    51.32843    
H           60.65       46.39       42.12       
H           68.56       49.68       54.79       
S           58.83       47.67       44.95       
C           60.36       46.79       43.08       
C           59.06       47.02       43.38       
C           74.07       49.84       55.38       
C           72.85       50.16       56.05       
C           73.95       49.33       54.12       
N           72.77       50.69       57.27       
N           70.62       50.46       56.18       
S           71.26       51.18       57.54       
H           72.73       49.0        52.39       
H           74.84       49.16       53.5        
C           72.69       49.2        53.46       
C           71.57       50.04       55.38       
C           71.47       49.57       54.02       
C           90.01       51.81       59.0        
C           89.11       52.82       58.78       
S           89.18       50.31       58.77       
C           83.2        52.01       57.65       
C           83.89       50.84       58.03       
C           83.34       49.55       58.02       
C           81.96       49.47       57.66       
C           81.3        50.62       57.34       
C           81.92       51.86       57.13       
C           81.05       48.23       57.67       
C           79.74       48.93       57.2        
C           79.95       50.34       56.99       
C           84.02       53.29       58.01       
C           85.35       52.64       58.28       
C           85.26       51.2        58.23       
C           78.52       48.38       56.85       
C           77.55       49.32       56.4        
C           77.76       50.72       56.39       
C           79.02       51.23       56.65       
C           86.57       53.31       58.5        
C           87.75       52.51       58.6        
C           87.65       51.08       58.63       
C           86.4        50.4        58.53       
C           81.62       47.14       56.68       
C           80.76       47.66       59.1        
C           84.05       54.26       56.8        
C           83.51       54.02       59.29       
H           81.41       52.78       56.91       
H           83.94       48.59       58.14       
H           86.55       54.37       58.52       
H           86.37       49.32       58.49       
H           78.35       47.33       56.91       
H           79.28       52.27       56.53       
H           82.75       47.06       56.86       
H           81.22       46.18       56.86       
H           81.47412    47.42481    55.63803    
H           80.17       48.47       59.54       
H           80.01       46.89       59.04       
H           81.65757    47.40355    59.66276    
H           83.81       55.05       59.22       
H           84.07       53.66       60.18       
H           82.4293     54.06912    59.42333    
H           83.13       54.86       56.65       
H           84.77       55.05       57.16       
H           84.53461    53.78273    55.94826    
H           75.88       47.9        56.04       
H           89.51       53.84       58.68       
S           76.3        51.48       55.89       
C           76.18       48.93       56.07       
C           75.36       50.0        55.93       
C           94.36       51.68       58.67       
C           93.7        51.01       59.74       
C           93.55       52.34       57.77       
N           94.27       50.23       60.66       
N           91.84       50.27       60.82       
S           93.08       49.59       61.59       
H           91.52       53.02       57.21       
H           93.97       52.8        56.85       
C           92.12       52.49       57.99       
C           92.25       51.03       59.82       
C           91.47       51.88       58.97       
C           109.81      49.79       52.9        
C           108.9       50.76       52.55       
S           109.21      48.93       54.34       
C           103.45      51.56       54.86       
C           104.15      50.52       55.49       
C           103.66      49.67       56.45       
C           102.33      49.96       56.79       
C           101.58      51.04       56.24       
C           102.13      51.82       55.23       
C           101.57      49.27       57.98       
C           100.19      49.97       57.71       
C           100.3       51.07       56.84       
C           104.36      52.5        54.03       
C           105.59      51.58       53.98       
C           105.43      50.5        54.85       
C           99.01       49.78       58.38       
C           97.91       50.62       58.08       
C           98.09       51.72       57.23       
C           99.27       51.94       56.54       
C           106.65      51.76       53.25       
C           107.71      50.86       53.32       
C           107.71      49.86       54.31       
C           106.51      49.67       55.02       
C           101.45      47.74       57.87       
C           102.04      49.75       59.38       
C           103.76      52.79       52.55       
C           104.81      53.81       54.79       
H           101.59      52.63       54.82       
H           104.2       48.86       57.01       
H           106.73      52.5        52.55       
H           106.39      48.81       55.75       
H           98.86       48.88       59.05       
H           99.32       52.81       55.9        
H           102.47      47.33       58.06       
H           100.81      47.4        58.72       
H           100.97585   47.43827    56.93606    
H           101.91      50.84       59.56       
H           101.35      49.19       60.01       
H           103.04784   49.46698    59.68373    
H           105.55      54.26       54.22       
H           105.42      53.43       55.61       
H           104.02958   54.53262    55.02846    
H           102.97      53.48       52.62       
H           104.57      53.19       51.94       
H           103.35955   51.88183    52.09949    
H           96.39       49.78       59.41       
H           109.08      51.36       51.66       
S           96.54       52.54       57.16       
C           96.61       50.52       58.64       
C           95.68       51.43       58.2        
C           112.28      47.31       50.3        
C           112.18      48.74       50.08       
C           111.74      46.95       51.46       
N           112.6       49.33       48.96       
N           111.53      50.93       50.57       
S           112.31      50.94       49.14       
H           110.49      47.26       53.16       
H           111.8       45.91       51.76       
C           110.96      47.82       52.36       
C           111.56      49.67       51.03       
C           110.86      49.16       52.19       
C           114.61      34.02       41.03       
C           114.26      34.01       42.32       
S           114.71      35.69       40.46       
C           114.06      39.03       45.69       
C           114.46      39.22       44.36       
C           114.64      40.5        43.8        
C           114.63      41.57       44.68       
C           114.31      41.36       46.03       
C           114.09      40.09       46.55       
C           114.76      43.11       44.38       
C           114.21      43.67       45.68       
C           114.24      42.65       46.68       
C           114.03      37.58       46.14       
C           114.36      36.89       44.78       
C           114.45      37.92       43.77       
C           113.84      44.96       46.09       
C           113.44      45.2        47.43       
C           113.43      44.18       48.35       
C           113.86      42.91       47.97       
C           114.2       35.54       44.38       
C           114.32      35.26       42.97       
C           114.47      36.32       42.08       
C           114.58      37.66       42.43       
C           116.28      43.5        44.19       
C           113.88      43.58       43.25       
C           115.12      37.31       47.19       
C           112.62      36.92       46.42       
H           113.7       40.0        47.57       
H           114.77      40.53       42.73       
H           114.17      34.69       45.04       
H           114.61      38.42       41.7        
H           113.72      45.78       45.37       
H           113.72      42.05       48.58       
H           116.65      43.27       43.19       
H           116.45      44.62       44.29       
H           116.99334   43.01959    44.85967    
H           114.19      43.03       42.38       
H           113.97      44.72       43.29       
H           112.85322   43.22594    43.34206    
H           112.58      35.83       46.27       
H           111.93      37.37       45.75       
H           112.19897   37.08413    47.41192    
H           114.97      37.88       48.06       
H           115.06      36.24       47.38       
H           116.11011   37.50513    46.77805    
H           112.89      47.32       47.44       
H           114.1       33.08       42.85       
S           112.92      44.68       49.94       
C           113.01      46.4        48.01       
C           112.75      46.32       49.34       
C           116.04      30.58       38.48       
C           115.34      30.32       39.66       
C           116.02      31.95       38.14       
N           115.14      29.14       40.22       
N           114.26      30.98       41.67       
S           114.34      29.33       41.62       
H           115.78      33.96       38.76       
H           116.59      32.28       37.28       
C           115.51      32.97       38.97       
C           114.82      31.43       40.49       
C           114.92      32.81       40.12       
C           121.83      20.05       26.83       
C           120.97      21.03       26.6        
S           122.15      19.89       28.59       
C           119.08      24.94       30.85       
C           119.71      23.82       31.38       
C           119.83      23.56       32.74       
C           119.16      24.41       33.55       
C           118.5       25.56       33.02       
C           118.51      25.93       31.65       
C           118.93      24.26       35.09       
C           118.19      25.63       35.35       
C           117.94      26.32       34.12       
C           118.86      24.8        29.37       
C           119.73      23.56       29.07       
C           120.26      23.02       30.28       
C           117.83      26.22       36.54       
C           117.31      27.53       36.59       
C           117.07      28.17       35.4        
C           117.32      27.56       34.15       
C           119.87      22.98       27.84       
C           120.6       21.79       27.79       
C           121.16      21.28       28.98       
C           120.99      21.87       30.25       
C           117.99      23.07       35.28       
C           120.16      24.04       35.98       
C           117.37      24.59       28.94       
C           119.55      26.05       28.72       
H           118.0       26.83       31.28       
H           120.33      22.7        33.2        
H           119.57      23.54       26.89       
H           121.47      21.53       31.12       
H           117.91      25.72       37.5        
H           117.24      28.22       33.28       
H           118.15      22.37       36.1        
H           118.17      22.45       34.47       
H           116.93331   23.33592    35.30799    
H           120.66      23.15       35.73       
H           119.71      23.9        36.98       
H           120.92581   24.81297    35.91559    
H           119.21      27.03       29.26       
H           120.57      26.01       29.0        
H           119.44347   26.15653    27.64046    
H           117.14      24.77       27.82       
H           116.76      25.4        29.34       
H           117.00889   23.62704    29.30111    
H           117.17      27.98       38.79       
H           120.53      21.16       25.62       
S           116.54      29.81       35.77       
C           117.05      28.32       37.76       
C           116.6       29.59       37.5        
C           123.85      17.13       24.06       
C           122.96      18.08       23.58       
C           124.06      17.17       25.4        
N           122.75      18.27       22.26       
N           121.64      19.97       23.73       
S           121.71      19.62       22.17       
H           123.36      17.96       27.31       
H           124.73      16.38       25.84       
C           123.35      18.1        26.24       
C           122.3       19.07       24.39       
C           122.42      19.07       25.87       
C           131.99      5.9         15.16       
C           132.51      6.3         16.33       
S           130.34      6.3         14.91       
C           129.34      10.12       19.91       
C           128.73      9.74        18.71       
C           127.52      10.23       18.35       
C           126.9       11.2        19.11       
C           127.58      11.71       20.22       
C           128.77      11.12       20.7        
C           125.55      11.88       18.9        
C           125.52      12.94       19.95       
C           126.7       12.8        20.72       
C           130.71      9.39        20.12       
C           130.68      8.58        18.75       
C           129.54      8.76        17.97       
C           124.52      13.78       20.37       
C           124.79      14.56       21.5        
C           126.02      14.47       22.23       
C           126.98      13.6        21.8        
C           131.73      7.79        18.29       
C           131.56      7.16        17.03       
C           130.3       7.29        16.37       
C           129.24      8.13        16.8        
C           125.56      12.7        17.57       
C           124.33      10.94       19.02       
C           131.91      10.36       20.21       
C           130.61      8.33        21.25       
H           129.3       11.38       21.62       
H           127.1       9.85        17.39       
H           132.62      7.57        18.82       
H           128.33      8.29        16.24       
H           123.59      13.9        19.86       
H           127.91      13.49       22.29       
H           125.75      12.08       16.67       
H           124.56      13.21       17.61       
H           126.3014    13.49898    17.5628     
H           124.4       10.25       18.1        
H           123.5       11.57       19.0        
H           124.33      10.32727    19.92148    
H           131.43      7.58        21.17       
H           129.68      7.86        21.22       
H           130.71476   8.76999     22.24173    
H           132.75      9.86        20.64       
H           131.69      11.22       20.83       
H           132.16757   10.82505    19.25843    
H           122.93      15.71       21.68       
H           133.49      5.98        16.65       
S           126.05      15.57       23.55       
C           123.89      15.53       22.09       
C           124.47      16.17       23.2        
C           134.03      3.98        11.58       
C           134.76      4.13        12.84       
C           132.75      4.45        11.69       
N           136.04      3.83        12.99       
N           134.87      4.73        15.1        
S           136.34      4.28        14.57       
H           131.14      5.47        12.64       
H           132.08      4.28        10.83       
C           132.05      5.05        12.85       
C           134.04      4.63        14.06       
C           132.64      5.16        14.03       
H           -14.52      30.62       33.45       
H           134.43      3.41        10.75       
