612

C           102.98      101.05      88.01       
C           102.36      102.24      88.2        
S           101.96      99.67       88.24       
C           96.79       102.59      90.62       
C           97.13       101.23      90.15       
C           96.17       100.2       90.2        
C           94.94       100.43      90.9        
C           94.61       101.74      91.33       
C           95.53       102.83      91.24       
C           93.86       99.45       91.2        
C           92.89       100.29      92.11       
C           93.29       101.64      92.0        
C           97.83       103.65      90.26       
C           98.91       102.73      89.66       
C           98.52       101.32      89.7        
C           91.94       99.87       93.02       
C           91.2        100.83      93.67       
C           91.5        102.24      93.54       
C           92.56       102.64      92.74       
C           100.19      103.1       89.16       
C           101.02      102.06      88.73       
C           100.68      100.72      88.87       
C           99.39       100.37      89.33       
C           93.3        99.0        89.89       
C           94.41       98.25       92.05       
C           97.16       104.6       89.21       
C           98.27       104.36      91.55       
H           95.3        103.81      91.56       
H           96.3        99.24       89.7        
H           100.54      104.13      89.01       
H           99.14       99.3        89.36       
H           91.72       98.8        93.15       
H           92.83       103.68      92.74       
H           93.53       97.93       89.69       
H           93.68       99.62       89.09       
H           92.22361    99.06502    89.73107    
H           95.22       97.7        91.46       
H           93.57       97.64       92.19       
H           94.94746    98.50128    92.96438    
H           97.52       104.77      92.23       
H           98.55       103.51      92.2        
H           99.12651    105.02696   91.45171    
H           96.2        105.06      89.58       
H           97.85       105.45      89.02       
H           96.98677    104.07309   88.27167    
H           89.85       99.6        94.95       
H           102.76      103.2       88.11       
S           90.65       103.12      94.76       
C           90.18       100.58      94.7        
C           89.84       101.71      95.38       
C           106.85      100.24      85.84       
C           106.46      101.57      86.24       
C           106.03      99.24       86.38       
N           107.07      102.7       85.91       
N           104.83      103.14      86.9        
S           106.05      103.97      86.26       
H           104.26      98.68       87.37       
H           106.17      98.25       86.0        
C           104.81      99.52       87.13       
C           105.2       101.83      86.91       
C           104.33      100.77      87.4        
C           119.02      100.2       74.35       
C           117.96      101.14      74.41       
S           118.93      98.98       75.55       
C           113.43      100.57      78.41       
C           114.4       99.59       78.55       
C           114.42      98.66       79.58       
C           113.33      98.71       80.47       
C           112.4       99.83       80.46       
C           112.44      100.68      79.39       
C           113.02      97.89       81.75       
C           111.81      98.63       82.38       
C           111.43      99.73       81.56       
C           113.76      101.55      77.3        
C           114.88      100.75      76.61       
C           115.35      99.7        77.4        
C           111.04      98.38       83.5        
C           109.92      99.12       83.8        
C           109.54      100.21      82.89       
C           110.34      100.54      81.82       
C           115.63      101.14      75.55       
C           116.93      100.66      75.37       
C           117.34      99.54       76.07       
C           116.5       98.98       77.11       
C           112.73      96.39       81.36       
C           114.19      98.01       82.72       
C           112.4       101.82      76.43       
C           114.32      102.8       78.02       
H           111.69      101.39      79.21       
H           115.1       97.81       79.58       
H           115.33      102.11      75.08       
H           116.91      98.24       77.73       
H           111.2       97.48       84.04       
H           110.08      101.35      81.09       
H           113.14      95.72       82.21       
H           113.34      96.08       80.45       
H           111.69977   96.1642     81.0848     
H           115.15      97.67       82.36       
H           113.89      97.36       83.54       
H           114.36699   99.00112    83.13769    
H           113.56      103.09      78.67       
H           115.09      102.56      78.74       
H           114.59339   103.59141   77.32212    
H           111.65      102.19      77.11       
H           112.55      102.58      75.78       
H           112.04739   100.90321   75.9575     
H           109.11      98.41       85.76       
H           117.86      102.04      73.81       
S           108.02      100.87      83.43       
C           108.94      99.05       84.91       
C           107.91      99.97       84.87       
C           121.78      100.37      71.02       
C           121.55      101.5       71.85       
C           121.16      99.24       71.48       
N           121.99      102.75      71.63       
N           120.75      102.61      73.73       
S           121.62      103.72      72.91       
H           119.75      98.25       72.72       
H           121.23      98.33       70.97       
C           120.4       99.17       72.65       
C           120.78      101.44      73.07       
C           120.13      100.2       73.46       
C           131.62      101.61      57.72       
C           131.38      100.37      58.32       
S           130.26      102.68      57.99       
C           127.08      99.58       62.51       
C           127.05      100.86      61.95       
C           126.09      101.79      62.34       
C           125.33      101.59      63.47       
C           125.53      100.44      64.17       
C           126.42      99.4        63.71       
C           124.36      102.56      64.2        
C           124.18      101.75      65.48       
C           124.8       100.5       65.48       
C           127.99      98.64       61.72       
C           128.71      99.61       60.85       
C           128.02      100.89      60.87       
C           123.34      102.0       66.55       
C           123.15      101.09      67.6        
C           123.79      99.88       67.56       
C           124.63      99.53       66.54       
C           129.78      99.44       60.04       
C           130.23      100.43      59.17       
C           129.51      101.63      59.18       
C           128.28      101.83      59.92       
C           125.12      103.93      64.23       
C           123.04      102.67      63.38       
C           128.89      97.9        62.76       
C           127.2       97.62       60.93       
H           126.49      98.43       64.23       
H           125.93      102.69      61.69       
H           130.39      98.6        60.2        
H           127.72      102.75      59.91       
H           122.86      102.98      66.56       
H           125.05      98.57       66.41       
H           125.24      104.39      63.25       
H           126.13      103.83      64.6        
H           124.74549   104.65742   64.95021    
H           123.34      103.23      62.49       
H           122.34      103.26      63.98       
H           122.60387   101.70479   63.12261    
H           127.44      96.61       61.23       
H           127.4       97.72       59.88       
H           126.12239   97.78238    60.95214    
H           128.2       97.38       63.44       
H           129.54      97.29       62.16       
H           129.5368    98.56071    63.33725    
H           122.0       102.34      69.05       
H           132.05      99.56       58.23       
S           123.58      99.09       69.12       
C           122.45      101.38      68.83       
C           122.47      100.35      69.71       
C           135.24      102.95      55.59       
C           134.08      103.78      55.63       
C           135.07      101.76      56.18       
N           133.97      105.01      55.15       
N           131.99      104.47      56.4        
S           132.49      105.71      55.5        
H           133.75      100.32      57.2        
H           135.87      100.99      56.23       
C           133.79      101.29      56.71       
C           132.81      103.38      56.32       
C           132.68      102.07      56.92       
C           149.9       109.76      51.34       
C           148.67      110.33      51.38       
S           149.76      108.18      52.01       
C           143.52      107.8       53.27       
C           144.5       106.84      52.97       
C           144.32      105.47      53.04       
C           143.14      105.1       53.57       
C           142.08      106.05      53.86       
C           142.25      107.42      53.76       
C           142.61      103.66      53.58       
C           141.2       103.86      54.13       
C           140.89      105.24      54.27       
C           143.85      109.14      52.57       
C           145.36      108.98      52.31       
C           145.75      107.63      52.59       
C           140.16      102.92      54.3        
C           138.89      103.35      54.67       
C           138.62      104.73      54.8        
C           139.63      105.7       54.54       
C           146.3       109.84      51.89       
C           147.64      109.5       51.84       
C           148.03      108.26      52.2        
C           147.06      107.23      52.41       
C           142.62      103.13      52.11       
C           143.45      102.74      54.52       
C           142.93      109.07      51.26       
C           143.53      110.35      53.5        
H           141.44      108.14      54.06       
H           145.12      104.76      52.88       
H           146.04      110.85      51.54       
H           147.37      106.18      52.66       
H           140.25      101.85      54.07       
H           139.43      106.79      54.68       
H           143.67      103.06      51.68       
H           142.04      103.83      51.54       
H           142.12622   102.17148   51.95025    
H           144.34      102.58      54.06       
H           142.92      101.86      54.63       
H           143.62677   103.24908   55.46746    
H           142.43      110.36      53.81       
H           144.02      110.33      54.46       
H           143.66912   111.33115   53.04603    
H           141.83      109.02      51.53       
H           142.98      108.08      50.97       
H           143.25547   109.62896   50.38265    
H           137.57      101.52      55.05       
H           148.49      111.33      51.01       
S           137.02      105.04      55.28       
C           137.69      102.6       54.91       
C           136.59      103.34      55.16       
C           153.4       110.84      48.9        
C           152.64      111.83      49.47       
C           153.14      109.58      49.32       
N           152.84      113.12      49.11       
N           150.73      112.65      50.41       
S           151.58      113.9       49.77       
H           151.9       108.33      50.54       
H           153.68      108.78      48.98       
C           152.08      109.33      50.28       
C           151.46      111.58      50.28       
C           151.18      110.22      50.75       
C           167.25      107.68      41.31       
C           167.21      108.75      42.23       
S           165.69      107.43      40.6        
C           162.05      111.14      44.24       
C           161.9       110.43      43.01       
C           160.63      110.14      42.51       
C           159.48      110.37      43.33       
C           159.64      111.07      44.53       
C           160.94      111.64      44.92       
C           158.06      109.78      43.18       
C           157.47      110.27      44.53       
C           158.33      111.19      45.16       
C           163.5       111.13      44.65       
C           164.19      110.54      43.49       
C           163.26      109.99      42.61       
C           156.28      109.94      44.97       
C           155.87      110.62      46.14       
C           156.67      111.55      46.84       
C           157.95      111.88      46.34       
C           165.54      110.24      43.31       
C           165.89      109.25      42.43       
C           164.93      108.63      41.59       
C           163.61      109.02      41.63       
C           157.52      110.4       41.93       
C           158.14      108.22      43.11       
C           164.02      112.59      44.79       
C           163.84      110.29      45.92       
H           160.99      112.27      45.74       
H           160.5       109.49      41.64       
H           166.36      110.68      43.9        
H           162.83      108.64      40.98       
H           155.74      109.1       44.54       
H           158.61      112.47      46.94       
H           157.92      109.92      41.14       
H           157.93      111.4       41.93       
H           156.43069   110.4274    41.9026     
H           158.71      107.92      42.27       
H           157.13      107.83      42.91       
H           158.53484   107.71748   43.993      
H           164.02      110.93      46.75       
H           164.71      109.79      45.76       
H           163.12265   109.50935   46.17318    
H           165.09      112.5       45.05       
H           163.6       113.17      45.65       
H           163.94085   113.14402   43.85464    
H           153.97      109.56      46.55       
H           168.05      109.13      42.85       
S           155.86      112.05      48.36       
C           154.66      110.34      46.86       
C           154.51      111.01      47.98       
C           170.16      104.43      40.51       
C           170.28      105.27      41.63       
C           168.96      104.69      39.87       
N           171.1       105.12      42.65       
N           169.75      107.08      43.0        
S           170.91      106.24      43.78       
H           167.3       105.79      39.3        
H           168.66      104.03      39.08       
C           168.07      105.72      40.11       
C           169.4       106.41      41.88       
C           168.25      106.69      41.09       
C           168.38      89.8        36.22       
C           168.56      90.75       35.25       
S           169.3       90.28       37.65       
C           171.5       96.04       36.34       
C           171.65      95.12       37.36       
C           172.22      95.4        38.56       
C           172.54      96.67       38.89       
C           172.23      97.68       37.87       
C           171.81      97.36       36.58       
C           172.41      97.27       40.29       
C           172.48      98.79       39.9        
C           172.3       98.99       38.49       
C           170.76      95.46       35.09       
C           170.61      94.01       35.49       
C           171.02      93.86       36.86       
C           172.33      99.86       40.76       
C           171.97      101.16      40.27       
C           171.65      101.24      38.91       
C           171.94      100.28      37.98       
C           169.87      92.96       34.86       
C           169.48      91.82       35.6        
C           170.01      91.72       36.92       
C           170.68      92.72       37.56       
C           171.06      96.8        40.91       
C           173.58      96.91       41.12       
C           169.42      96.22       34.95       
C           171.64      95.62       33.85       
H           171.49      98.18       35.88       
H           172.35      94.61       39.34       
H           169.56      93.09       33.83       
H           170.95      92.59       38.6        
H           172.61      99.68       41.79       
H           171.67      100.47      36.95       
H           171.07      95.72       41.04       
H           170.21      97.09       40.17       
H           170.85868   97.20263    41.9027     
H           173.63      95.87       41.29       
H           173.33      97.36       42.04       
H           174.5112    97.33076    40.74062    
H           171.11      95.07       33.08       
H           172.51      95.01       34.04       
H           171.84824   96.6253     33.48378    
H           169.71      97.29       34.88       
H           168.8       95.89       34.09       
H           168.81422   96.17822    35.8552     
H           171.56      102.4       41.99       
H           168.01      90.76       34.33       
S           171.04      102.81      38.45       
C           171.49      102.33      40.96       
C           170.88      103.23      40.16       
C           165.52      86.38       36.4        
C           165.84      87.1        35.21       
C           166.24      86.89       37.44       
N           165.34      86.7        34.02       
N           167.0       88.56       33.94       
S           165.98      87.72       32.95       
H           167.5       88.29       38.43       
H           166.16      86.44       38.35       
C           167.15      87.97       37.43       
C           166.78      88.17       35.16       
C           167.49      88.65       36.28       
C           161.04      72.14       42.68       
C           161.07      73.27       43.43       
S           160.92      72.49       40.94       
C           161.23      78.89       40.92       
C           161.23      77.77       40.02       
C           161.41      77.94       38.67       
C           161.81      79.17       38.24       
C           161.89      80.31       39.16       
C           161.55      80.21       40.48       
C           162.3       79.51       36.88       
C           162.73      80.99       37.09       
C           162.45      81.42       38.37       
C           160.92      78.34       42.37       
C           160.85      76.83       42.09       
C           160.93      76.5        40.75       
C           163.4       81.83       36.19       
C           163.75      83.08       36.58       
C           163.52      83.49       37.93       
C           162.82      82.66       38.85       
C           160.85      75.81       43.04       
C           160.96      74.48       42.65       
C           160.92      74.18       41.24       
C           161.03      75.21       40.32       
C           163.54      78.67       36.51       
C           161.17      79.45       35.78       
C           162.14      78.62       43.36       
C           159.49      78.74       42.88       
H           161.66      81.1        41.05       
H           161.3       77.03       38.01       
H           160.68      76.07       44.09       
H           161.14      75.04       39.25       
H           163.63      81.51       35.12       
H           162.59      83.02       39.83       
H           163.26      77.65       36.24       
H           163.84      79.08       35.58       
H           164.38468   78.72494    37.19673    
H           160.37      80.24       36.02       
H           161.67      79.73       34.87       
H           160.65178   78.50115    35.64132    
H           159.22      78.1        43.71       
H           158.74      78.65       42.07       
H           159.46844   79.7892     43.17464    
H           162.22      79.68       43.7        
H           161.99      78.17       44.39       
H           163.12325   78.29466    43.0202     
H           164.98      84.01       34.87       
H           161.06      73.25       44.51       
S           164.17      85.08       38.23       
C           164.49      84.16       35.83       
C           164.69      85.24       36.62       
C           161.49      67.78       43.82       
C           161.04      68.79       44.76       
C           161.68      68.33       42.59       
N           160.83      68.54       46.07       
N           160.3       70.95       45.42       
S           160.22      69.96       46.71       
H           161.82      69.96       41.17       
H           161.97      67.65       41.85       
C           161.54      69.71       42.19       
C           160.85      70.21       44.39       
C           161.09      70.71       43.03       
C           162.59      51.68       47.78       
C           161.75      52.53       48.43       
S           163.56      52.52       46.67       
C           161.2       58.3        46.81       
C           162.2       57.62       46.05       
C           163.03      58.2        45.16       
C           162.79      59.5        44.87       
C           161.8       60.27       45.6        
C           161.01      59.62       46.5        
C           163.6       60.47       44.03       
C           162.95      61.81       44.26       
C           161.91      61.66       45.2        
C           160.4       57.45       47.76       
C           160.98      56.11       47.49       
C           162.12      56.26       46.58       
C           163.32      63.02       43.59       
C           162.62      64.2        44.02       
C           161.64      64.07       45.08       
C           161.33      62.79       45.62       
C           160.81      54.9        48.15       
C           161.78      53.85       47.92       
C           162.76      54.04       46.96       
C           163.07      55.22       46.34       
C           165.06      60.4        44.62       
C           163.51      60.01       42.55       
C           160.56      58.08       49.2        
C           158.95      57.59       47.15       
H           160.25      60.22       46.96       
H           163.67      57.62       44.44       
H           159.98      54.7        48.79       
H           163.98      55.3        45.68       
H           164.09      62.98       42.83       
H           160.59      62.66       46.41       
H           165.77      60.39       43.76       
H           165.21      59.5        45.09       
H           165.3011    61.15166    45.37166    
H           164.07      59.1        42.52       
H           164.14      60.72       41.98       
H           162.48289   59.84974    42.2222     
H           158.55      58.49       47.47       
H           159.02      57.77       46.11       
H           158.37205   56.69097    47.36405    
H           159.58      58.26       49.65       
H           161.07      59.06       49.11       
H           161.29893   57.52405    49.77707    
H           163.4       65.92       42.8        
H           160.99      52.09       49.08       
S           160.73      65.55       45.17       
C           162.71      65.57       43.55       
C           161.77      66.39       44.11       
C           163.04      47.27       47.77       
C           162.81      47.95       49.04       
C           163.11      48.17       46.72       
N           162.73      47.41       50.27       
N           162.41      49.77       50.37       
S           162.46      48.52       51.41       
H           162.77      50.01       45.77       
H           163.22      47.73       45.77       
C           162.88      49.57       46.77       
C           162.57      49.4        49.09       
C           162.7       50.26       47.9        
C           166.78      31.38       45.22       
C           166.79      32.34       44.19       
S           166.55      32.29       46.71       
C           166.58      38.45       45.32       
C           166.35      37.52       46.41       
C           165.97      37.91       47.69       
C           165.68      39.28       47.87       
C           165.89      40.19       46.8        
C           166.39      39.78       45.52       
C           164.79      39.89       48.95       
C           164.64      41.33       48.47       
C           165.23      41.45       47.16       
C           167.02      37.62       44.1        
C           166.73      36.16       44.5        
C           166.44      36.13       45.9        
C           163.84      42.34       48.95       
C           163.64      43.54       48.24       
C           164.27      43.6        46.93       
C           165.03      42.58       46.36       
C           167.01      34.95       43.88       
C           166.82      33.7        44.61       
C           166.55      33.8        45.97       
C           166.36      34.99       46.66       
C           163.49      39.02       48.99       
C           165.26      40.09       50.42       
C           166.22      38.04       42.83       
C           168.56      37.65       43.78       
H           166.57      40.56       44.74       
H           165.9       37.14       48.47       
H           167.07      34.92       42.82       
H           166.14      35.04       47.7        
H           163.41      42.29       49.96       
H           165.53      42.67       45.47       
H           163.63      38.03       49.42       
H           162.68      39.56       49.55       
H           162.97955   38.90497    48.03381    
H           165.89      40.91       50.64       
H           164.3       40.25       50.91       
H           165.74174   39.24331    50.90903    
H           168.92      37.14       42.9        
H           168.98      37.06       44.64       
H           168.99607   38.64875    43.7589     
H           166.29      37.19       42.17       
H           166.63      38.96       42.32       
H           165.15183   38.20379    42.97242    
H           162.68      44.9        49.61       
H           166.89      31.99       43.2        
S           164.05      45.27       46.23       
C           163.16      44.83       48.63       
C           163.24      45.86       47.72       
C           166.99      27.0        45.64       
C           167.01      27.54       44.29       
C           167.12      27.93       46.69       
N           166.97      26.9        43.11       
N           166.94      29.35       42.82       
S           166.88      28.0        41.9        
H           167.1       29.92       47.42       
H           167.04      27.56       47.74       
C           167.14      29.33       46.55       
C           167.02      28.99       44.13       
C           167.0       29.9        45.31       
C           160.38      11.98       48.67       
C           161.0       12.24       47.49       
S           160.25      13.49       49.56       
C           163.75      17.62       46.24       
C           162.8       17.59       47.29       
C           162.71      18.73       48.12       
C           163.62      19.76       47.98       
C           164.41      19.81       46.8        
C           164.44      18.74       45.83       
C           163.86      20.96       48.88       
C           164.87      21.7        48.0        
C           164.95      21.14       46.7        
C           163.8       16.2        45.54       
C           162.66      15.4        46.3        
C           162.31      16.2        47.49       
C           165.39      22.93       48.22       
C           165.89      23.74       47.18       
C           165.94      23.14       45.85       
C           165.49      21.84       45.63       
C           162.2       14.11       46.19       
C           161.41      13.62       47.28       
C           161.07      14.48       48.35       
C           161.5       15.78       48.48       
C           162.48      21.56       49.18       
C           164.47      20.44       50.22       
C           163.52      16.5        44.04       
C           165.12      15.37       45.65       
H           165.09      18.84       44.97       
H           162.1       18.73       49.01       
H           162.41      13.46       45.35       
H           161.27      16.43       49.34       
H           165.37      23.25       49.26       
H           165.61      21.4        44.66       
H           162.58      22.2        50.09       
H           161.77      20.79       49.47       
H           162.11365   22.20816    48.3839     
H           163.85      19.79       50.74       
H           164.63      21.35       50.87       
H           165.34667   19.82202    50.02598    
H           164.97      14.5        45.08       
H           165.18      15.02       46.64       
H           166.06936   15.84468    45.40203    
H           163.95      15.74       43.47       
H           164.05      17.44       43.68       
H           162.46915   16.60008    43.76835    
H           166.14      25.76       48.06       
H           161.27      11.35       46.82       
S           166.61      24.35       44.79       
C           166.24      25.16       47.18       
C           166.72      25.62       45.97       
C           158.53      8.28        50.26       
C           159.78      8.23        49.57       
C           158.08      9.57        50.49       
N           160.45      7.11        49.23       
N           161.71      9.21        48.6        
S           161.92      7.57        48.58       
H           158.23      11.72       50.15       
H           157.22      9.73        51.13       
C           158.74      10.73       50.0        
C           160.52      9.46        49.17       
C           159.93      10.75       49.3        
H           89.16       101.78      96.23       
H           157.95      7.38        50.4        
