612

C           17.46       96.17       90.84       
C           17.08       97.25       91.63       
S           19.04       95.52       91.23       
C           21.23       99.86       95.39       
C           21.67       98.82       94.54       
C           22.99       98.48       94.48       
C           23.88       99.0        95.48       
C           23.38       99.86       96.48       
C           22.07       100.37      96.4        
C           25.44       98.89       95.52       
C           25.66       99.33       96.99       
C           24.47       100.06      97.43       
C           19.74       100.11      95.11       
C           19.43       99.03       93.98       
C           20.57       98.28       93.8        
C           26.84       99.49       97.76       
C           26.74       100.18      98.93       
C           25.6        100.83      99.35       
C           24.41       100.75      98.61       
C           18.26       98.77       93.33       
C           18.23       97.65       92.4        
C           19.37       96.79       92.32       
C           20.57       97.17       93.0        
C           26.0        97.43       95.21       
C           26.11       99.96       94.63       
C           18.89       99.9        96.41       
C           19.39       101.44      94.4        
H           21.61       100.87      97.24       
H           23.27       97.73       93.81       
H           17.39       99.41       93.4        
H           21.44       96.56       92.85       
H           27.72       98.9        97.48       
H           23.5        101.16      98.96       
H           25.65       97.12       94.24       
H           27.1        97.37       95.34       
H           25.55577    96.79142    95.97352    
H           26.19       100.98      95.03       
H           27.19       99.76       94.52       
H           25.66098    100.10733   93.64777    
H           18.36       101.65      94.16       
H           19.92       101.33      93.56       
H           19.68127    102.34934   94.92571    
H           19.29       100.57      97.23       
H           17.82       100.2       96.22       
H           18.93173    98.85673    96.72298    
H           28.71       99.67       99.97       
H           16.19       97.82       91.68       
S           25.85       101.68      100.88      
C           27.72       100.11      100.03      
C           27.38       100.86      101.15      
C           15.08       93.67       87.95       
C           14.53       94.82       88.53       
C           16.4        93.37       88.45       
N           13.28       95.32       88.35       
N           14.5        96.57       90.03       
S           12.94       96.46       89.47       
H           18.01       93.82       89.68       
H           16.94       92.52       88.18       
C           17.07       94.24       89.36       
C           15.26       95.63       89.46       
C           16.65       95.42       89.84       
C           8.08        79.97       81.42       
C           7.65        80.51       82.63       
S           9.36        81.0        80.75       
C           9.55        86.06       84.59       
C           10.29       85.42       83.54       
C           11.51       85.96       83.0        
C           11.9        87.19       83.58       
C           11.15       87.84       84.62       
C           9.98        87.26       85.19       
C           13.21       87.92       83.29       
C           13.25       88.82       84.51       
C           11.99       88.94       85.15       
C           8.44        85.18       85.08       
C           8.54        84.0        84.03       
C           9.52        84.27       83.08       
C           14.28       89.68       84.84       
C           14.01       90.67       85.8        
C           12.73       90.78       86.44       
C           11.69       89.86       86.13       
C           7.89        82.8        84.01       
C           8.19        81.88       82.93       
C           9.16        82.17       82.0        
C           9.88        83.36       82.07       
C           14.44       87.04       83.35       
C           13.07       88.69       81.94       
C           8.74        84.62       86.55       
C           6.98        85.63       84.9        
H           9.49        87.73       85.98       
H           11.96       85.59       82.14       
H           7.06        82.7        84.71       
H           10.68       83.52       81.37       
H           15.27       89.6        84.43       
H           10.75       89.97       86.61       
H           14.46       86.24       82.61       
H           15.4        87.51       83.15       
H           14.62881    86.44452    84.24322    
H           12.63       88.05       81.2        
H           14.01       88.92       81.44       
H           12.37686    89.53119    81.94673    
H           6.38        84.76       84.99       
H           6.89        86.08       83.85       
H           6.61197     86.32926    85.65079    
H           8.67        85.34       87.38       
H           8.04        83.87       86.84       
H           9.74919     84.2251     86.66701    
H           15.93       91.7        85.98       
H           6.8         80.05       83.14       
S           12.72       92.16       87.56       
C           14.91       91.65       86.33       
C           14.37       92.62       87.19       
C           7.82        76.3        78.88       
C           7.37        76.26       80.16       
C           8.12        77.52       78.43       
N           7.13        75.12       80.83       
N           7.15        77.01       82.39       
S           6.81        75.4        82.38       
H           8.57        79.54       78.83       
H           8.64        77.6        77.51       
C           8.19        78.67       79.3        
C           7.36        77.39       81.07       
C           7.75        78.72       80.61       
C           14.19       65.81       67.74       
C           14.72       66.95       68.17       
S           12.73       65.47       68.59       
C           12.32       70.55       72.53       
C           11.59       69.38       72.21       
C           10.4        69.1        72.9        
C           10.03       69.98       74.01       
C           10.79       71.13       74.3        
C           11.92       71.44       73.55       
C           8.77        69.86       74.89       
C           8.89        71.17       75.72       
C           10.07       71.92       75.29       
C           13.68       70.38       71.9        
C           13.44       69.26       70.86       
C           12.29       68.62       71.18       
C           8.02        71.74       76.64       
C           8.32        73.03       77.12       
C           9.51        73.66       76.7        
C           10.31       73.17       75.78       
C           14.28       68.81       69.89       
C           13.98       67.61       69.25       
C           12.83       66.88       69.62       
C           11.94       67.41       70.58       
C           7.44        69.89       74.0        
C           8.84        68.6        75.82       
C           14.1        71.7        71.18       
C           14.68       69.98       73.01       
H           12.52       72.31       73.78       
H           9.84        68.19       72.6        
H           15.08       69.38       69.55       
H           11.14       66.75       70.89       
H           7.13        71.28       76.96       
H           11.12       73.78       75.29       
H           7.65        69.16       73.22       
H           7.4         70.74       73.43       
H           6.5255      69.55937    74.49242    
H           8.28        67.77       75.35       
H           8.26        68.83       76.78       
H           9.88247     68.31242    75.9566     
H           14.88       70.76       73.75       
H           14.27       69.18       73.57       
H           15.66649    69.71968    72.62637    
H           14.45       72.43       71.9        
H           14.95       71.44       70.58       
H           13.38088    72.16079    70.50277    
H           6.62        73.68       78.57       
H           15.64       67.44       67.88       
S           9.67        75.27       77.34       
C           7.55        73.89       78.04       
C           8.1         75.13       78.12       
C           15.01       62.86       64.5        
C           15.77       64.05       64.62       
C           14.06       62.74       65.46       
N           16.74       64.39       63.77       
N           16.29       66.11       65.53       
S           17.23       65.94       64.2        
H           13.11       63.39       67.2        
H           13.54       61.77       65.42       
C           13.92       63.64       66.54       
C           15.45       65.07       65.64       
C           14.52       64.87       66.66       
C           17.23       50.07       54.61       
C           16.01       50.24       55.21       
S           18.14       51.54       54.61       
C           14.39       55.47       58.02       
C           15.54       55.54       57.15       
C           16.35       56.67       57.13       
C           16.09       57.72       57.98       
C           14.95       57.63       58.88       
C           14.11       56.52       58.94       
C           16.99       58.97       58.32       
C           16.15       59.64       59.42       
C           15.09       58.77       59.84       
C           13.72       54.05       57.82       
C           14.64       53.32       56.84       
C           15.7        54.24       56.49       
C           16.45       60.75       60.19       
C           15.72       60.94       61.37       
C           14.63       60.1        61.68       
C           14.31       59.0        60.96       
C           14.67       52.04       56.38       
C           15.74       51.57       55.62       
C           16.85       52.42       55.42       
C           16.84       53.81       55.75       
C           18.27       58.42       58.98       
C           17.24       60.03       57.15       
C           13.71       53.37       59.22       
C           12.29       54.06       57.18       
H           13.19       56.49       59.55       
H           17.12       56.76       56.38       
H           13.79       51.38       56.67       
H           17.7        54.55       55.55       
H           17.37       61.34       60.08       
H           13.59       58.34       61.33       
H           18.84       57.88       58.3        
H           18.97       59.15       59.3        
H           18.06906    57.688      59.76224    
H           16.41       60.13       56.52       
H           17.48       61.02       57.64       
H           17.99618    59.69006    56.44238    
H           12.01       53.01       57.16       
H           12.29       54.37       56.13       
H           11.55408    54.65302    57.72301    
H           12.91       53.69       59.87       
H           13.72       52.33       59.02       
H           14.59561    53.586      59.81761    
H           16.75       62.79       62.17       
H           15.42       49.33       55.35       
S           13.89       60.69       63.18       
C           16.03       61.98       62.34       
C           15.19       61.92       63.42       
C           19.36       46.22       54.0        
C           19.8        47.45       53.33       
C           18.23       46.41       54.78       
N           20.87       47.58       52.5        
N           19.67       49.71       52.72       
S           20.97       49.12       51.94       
H           16.76       47.72       55.71       
H           17.83       45.56       55.37       
C           17.58       47.71       54.98       
C           19.09       48.7        53.42       
C           17.99       48.87       54.3        
C           27.44       32.6        59.21       
C           26.09       32.79       59.45       
S           28.15       33.83       58.21       
C           23.17       37.56       57.0        
C           24.55       37.54       56.79       
C           25.18       38.57       56.05       
C           24.45       39.61       55.46       
C           23.05       39.59       55.7        
C           22.41       38.66       56.53       
C           24.79       40.75       54.48       
C           23.5        41.57       54.61       
C           22.52       40.85       55.24       
C           22.68       36.35       57.8        
C           24.03       35.61       58.03       
C           25.1        36.33       57.39       
C           23.34       42.87       54.2        
C           22.03       43.38       54.15       
C           21.0        42.67       54.89       
C           21.2        41.44       55.4        
C           24.27       34.47       58.78       
C           25.61       33.99       58.7        
C           26.64       34.74       58.07       
C           26.43       35.98       57.47       
C           26.06       41.53       54.88       
C           24.72       40.19       53.01       
C           22.08       36.79       59.17       
C           21.77       35.4        56.9        
H           21.35       38.71       56.68       
H           26.25       38.39       55.95       
H           23.53       33.86       59.28       
H           27.28       36.6        57.22       
H           24.12       43.39       53.61       
H           20.5        40.97       56.06       
H           26.9        40.83       54.78       
H           26.19       42.43       54.27       
H           25.99542    41.7668     55.94201    
H           23.8        39.66       52.86       
H           24.65       41.09       52.33       
H           25.51219    39.49683    52.72707    
H           21.65       34.42       57.37       
H           22.33       35.13       56.0        
H           20.80362    35.79371    56.58503    
H           21.19       37.42       59.11       
H           21.68       35.91       59.75       
H           22.82576    37.20818    59.84606    
H           22.17       45.46       53.4        
H           25.43       32.2        60.07       
S           19.5        43.59       54.99       
C           21.57       44.69       53.79       
C           20.2        44.92       54.07       
C           30.22       29.85       61.35       
C           28.84       29.92       61.73       
C           30.55       30.58       60.26       
N           28.29       29.29       62.81       
N           26.74       30.65       61.51       
S           26.69       29.68       62.91       
H           30.07       32.04       58.72       
H           31.5        30.54       59.82       
C           29.64       31.44       59.55       
C           27.96       30.73       60.96       
C           28.33       31.58       59.85       
C           41.76       19.08       65.01       
C           42.03       20.29       64.44       
S           40.3        19.02       65.89       
C           38.02       24.97       64.72       
C           37.56       23.69       65.2        
C           36.21       23.52       65.54       
C           35.33       24.57       65.36       
C           35.75       25.81       64.75       
C           37.07       25.98       64.45       
C           33.87       24.61       65.72       
C           33.49       25.88       64.85       
C           34.6        26.52       64.33       
C           39.5        24.82       64.22       
C           39.82       23.4        64.62       
C           38.72       22.73       65.23       
C           32.23       26.33       64.56       
C           32.13       27.38       63.6        
C           33.31       28.07       63.16       
C           34.57       27.73       63.55       
C           41.03       22.71       64.43       
C           41.05       21.31       64.81       
C           39.95       20.71       65.54       
C           38.73       21.47       65.73       
C           33.2        23.31       65.2        
C           33.64       24.85       67.26       
C           39.56       24.94       62.64       
C           40.43       25.85       64.82       
H           37.36       26.88       63.98       
H           35.91       22.57       65.94       
H           41.84       23.12       63.8        
H           37.82       20.92       66.08       
H           31.37       25.78       64.8        
H           35.48       28.24       63.29       
H           33.67       22.45       65.63       
H           32.19       23.33       65.48       
H           33.25456    23.21451    64.11556    
H           34.28       25.7        67.61       
H           32.55       25.13       67.35       
H           33.80749    24.01253    67.93726    
H           40.3        26.76       64.28       
H           41.4        25.34       64.63       
H           40.35748    25.97329    65.90057    
H           39.04       25.84       62.23       
H           40.49       25.1        62.16       
H           39.00838    24.13325    62.15733    
H           29.99       27.53       62.96       
H           42.93       20.38       63.9        
S           32.91       29.45       62.1        
C           31.0        27.86       62.83       
C           31.25       29.0        62.02       
C           43.48       15.31       63.53       
C           43.04       15.41       64.88       
C           43.46       16.57       62.84       
N           43.09       14.39       65.74       
N           42.07       16.48       66.65       
S           42.36       14.93       67.12       
H           42.89       18.6        62.83       
H           43.87       16.71       61.82       
C           42.98       17.76       63.49       
C           42.53       16.61       65.44       
C           42.46       17.86       64.67       
C           45.87       0.79        55.97       
C           45.14       1.77        55.43       
S           46.81       1.48        57.38       
C           45.23       7.74        57.32       
C           46.03       6.8         58.06       
C           46.8        7.22        59.21       
C           46.49       8.46        59.73       
C           45.47       9.26        59.18       
C           44.9        8.95        57.93       
C           46.99       8.99        61.06       
C           46.04       10.17       61.32       
C           45.22       10.29       60.21       
C           44.4        6.9         56.33       
C           45.04       5.54        56.34       
C           45.97       5.47        57.4        
C           46.01       11.01       62.39       
C           45.08       12.09       62.37       
C           44.23       12.23       61.17       
C           44.33       11.37       60.1        
C           44.74       4.35        55.64       
C           45.35       3.07        55.96       
C           46.2        3.08        57.08       
C           46.58       4.28        57.72       
C           46.75       7.87        62.1        
C           48.5        9.39        60.96       
C           42.95       6.89        56.95       
C           44.35       7.4         54.86       
H           44.08       9.57        57.49       
H           47.54       6.57        59.69       
H           43.84       4.25        55.03       
H           47.4        4.19        58.44       
H           46.63       10.85       63.24       
H           43.71       11.48       59.27       
H           47.16       6.94        61.75       
H           45.68       7.82        62.13       
H           47.16629    8.06756     63.08781    
H           49.06       8.47        60.71       
H           48.96       9.71        61.9        
H           48.7277     10.0731     60.1417     
H           43.52       7.01        54.35       
H           45.14       7.03        54.21       
H           44.32825    8.4801      54.71502    
H           42.61       7.94        56.89       
H           42.94       6.56        57.98       
H           42.1859     6.283       56.4644     
H           45.17       13.16       64.32       
H           44.43       1.46        54.65       
S           43.3        13.65       61.3        
C           44.76       13.1        63.35       
C           43.92       14.07       62.94       
C           46.19       -3.55       55.69       
C           45.18       -2.8        54.99       
C           47.08       -2.81       56.33       
N           44.29       -3.38       54.19       
N           43.84       -0.95       54.5        
S           43.14       -2.25       53.76       
H           47.85       -0.92       56.93       
H           47.94       -3.3        56.75       
C           46.98       -1.37       56.41       
C           44.97       -1.39       55.12       
C           45.93       -0.62       55.86       
C           52.09       -18.66      55.89       
C           52.27       -17.81      56.99       
S           50.77       -18.13      54.89       
C           49.25       -12.51      57.37       
C           48.93       -13.36      56.33       
C           48.05       -13.0       55.3        
C           47.69       -11.67      55.26       
C           47.96       -10.81      56.38       
C           48.69       -11.24      57.46       
C           46.97       -10.91      54.12       
C           46.69       -9.62       54.86       
C           47.41       -9.55       56.07       
C           50.2        -13.26      58.35       
C           50.51       -14.57      57.61       
C           49.64       -14.57      56.5        
C           46.23       -8.45       54.26       
C           46.33       -7.28       55.01       
C           46.99       -7.27       56.25       
C           47.49       -8.39       56.82       
C           51.26       -15.69      58.01       
C           51.34       -16.74      57.01       
C           50.55       -16.76      55.9        
C           49.69       -15.7       55.61       
C           48.05       -10.81      53.02       
C           45.63       -11.36      53.62       
C           51.52       -12.46      58.64       
C           49.36       -13.45      59.65       
H           48.98       -10.54      58.24       
H           47.83       -13.58      54.39       
H           52.04       -15.6       58.72       
H           49.07       -15.61      54.73       
H           45.8        -8.5        53.26       
H           47.83       -8.35       57.84       
H           47.55       -10.52      52.12       
H           48.48       -11.79      52.84       
H           48.84852    -10.11129   53.26954    
H           45.64       -12.29      52.96       
H           45.12       -10.7       52.93       
H           45.02169    -11.66066   54.47303    
H           49.24       -12.52      60.2        
H           50.02       -13.99      60.27       
H           48.38813    -13.9433    59.63527    
H           51.27       -11.74      59.41       
H           52.3        -13.13      59.01       
H           51.81438    -11.87123   57.77121    
H           45.64       -5.55       53.75       
H           53.0        -17.96      57.71       
S           47.05       -5.7        57.02       
C           46.06       -5.87       54.65       
C           46.27       -4.98       55.64       
C           55.01       -21.3       53.9        
C           53.65       -21.7       54.02       
C           55.32       -20.11      54.45       
N           53.04       -22.79      53.36       
N           51.47       -21.48      54.81       
S           51.45       -22.73      53.77       
H           54.82       -18.41      55.64       
H           56.32       -19.72      54.38       
C           54.36       -19.39      55.3        
C           52.71       -20.88      54.76       
C           53.07       -19.67      55.41       
C           66.31       -28.19      43.64       
C           66.75       -27.6       44.76       
S           64.58       -28.34      43.56       
C           62.62       -24.88      48.59       
C           62.1        -25.6       47.46       
C           60.72       -25.57      47.22       
C           59.93       -24.93      48.17       
C           60.47       -24.23      49.3        
C           61.87       -24.18      49.51       
C           58.38       -24.81      48.15       
C           58.21       -23.81      49.28       
C           59.37       -23.71      50.06       
C           64.16       -24.94      48.52       
C           64.43       -25.86      47.33       
C           63.18       -26.24      46.69       
C           56.99       -23.47      49.76       
C           56.89       -22.92      51.12       
C           58.06       -22.76      51.82       
C           59.35       -23.07      51.35       
C           65.61       -26.25      46.78       
C           65.69       -27.09      45.57       
C           64.39       -27.48      45.04       
C           63.18       -27.02      45.54       
C           57.89       -24.22      46.79       
C           57.69       -26.13      48.48       
C           64.56       -23.46      48.29       
C           64.88       -25.54      49.74       
H           62.41       -23.69      50.3        
H           60.31       -26.07      46.31       
H           66.56       -25.91      47.2        
H           62.27       -27.28      44.99       
H           56.09       -23.57      49.12       
H           60.27       -22.91      51.89       
H           57.98       -24.97      46.04       
H           56.85       -23.97      46.81       
H           58.47686    -23.36765   46.44766    
H           58.2        -26.55      49.31       
H           56.68       -25.89      48.8        
H           57.7694     -26.9023    47.71492    
H           65.1        -24.67      50.52       
H           65.76       -25.98      49.37       
H           64.29137    -26.27219   50.29273    
H           64.19       -22.89      49.09       
H           64.09       -23.01      47.41       
H           65.62966    -23.28796   48.17032    
H           54.67       -22.6       51.22       
H           67.78       -27.57      44.99       
S           57.65       -21.89      53.25       
C           55.69       -22.43      51.72       
C           55.94       -21.89      52.93       
C           68.8        -30.01      40.47       
C           68.97       -30.34      41.86       
C           67.7        -29.22      40.23       
N           70.06       -31.02      42.3        
N           68.62       -30.19      44.15       
S           70.05       -30.94      43.94       
H           65.96       -28.21      40.94       
H           67.36       -29.11      39.18       
C           66.89       -28.71      41.28       
C           68.18       -29.81      42.92       
C           67.13       -28.88      42.59       
C           77.62       -35.7       27.3        
C           77.1        -34.46      27.31       
S           77.55       -36.4       28.87       
C           73.85       -32.22      31.97       
C           74.39       -33.53      32.16       
C           74.19       -34.22      33.36       
C           73.63       -33.57      34.42       
C           73.04       -32.31      34.23       
C           73.02       -31.64      32.92       
C           73.71       -33.85      35.87       
C           72.61       -32.94      36.42       
C           72.4        -31.86      35.49       
C           74.31       -31.65      30.6        
C           74.97       -32.88      29.93       
C           75.13       -33.91      30.94       
C           72.01       -32.96      37.61       
C           71.19       -31.85      38.04       
C           71.02       -30.77      37.14       
C           71.61       -30.77      35.83       
C           75.6        -32.96      28.71       
C           76.39       -34.14      28.46       
C           76.53       -35.14      29.45       
C           75.94       -34.97      30.71       
C           73.32       -35.37      36.25       
C           75.1        -33.56      36.48       
C           73.06       -31.13      29.87       
C           75.38       -30.5       30.87       
H           72.48       -30.73      32.78       
H           74.68       -35.17      33.5        
H           75.48       -32.17      27.98       
H           75.99       -35.79      31.45       
H           72.29       -33.75      38.36       
H           71.35       -30.0       35.17       
H           74.02       -36.07      35.85       
H           73.45       -35.49      37.31       
H           72.36284    -35.74577   35.88841    
H           75.4        -32.54      36.24       
H           75.14       -33.68      37.59       
H           75.87349    -34.18447   36.03294    
H           74.79       -29.6       31.2        
H           75.88       -30.29      29.89       
H           76.15487    -30.74881   31.5951     
H           72.61       -30.48      30.57       
H           72.31       -31.93      29.7        
H           73.26254    -30.63088   28.92239    
H           70.45       -32.44      40.04       
H           77.17       -33.9       26.37       
S           69.94       -29.6       37.87       
C           70.41       -31.69      39.27       
C           69.54       -30.58      39.36       
C           79.3        -38.32      24.09       
C           78.71       -37.03      23.78       
C           79.15       -38.69      25.43       
N           78.61       -36.55      22.53       
N           77.67       -35.06      24.24       
S           77.95       -35.11      22.64       
H           78.67       -38.21      27.39       
H           79.49       -39.74      25.66       
C           78.71       -37.8       26.41       
C           78.12       -36.15      24.78       
C           78.14       -36.53      26.19       
H           28.04       100.92      102.04      
H           79.83       -38.87      23.32       
