612

C           10.05       37.05       94.96       
C           8.91        36.48       95.3        
S           10.14       37.26       93.25       
C           4.92        34.11       91.31       
C           5.92        35.01       90.77       
C           6.2         35.02       89.4        
C           5.41        34.3        88.52       
C           4.31        33.55       89.08       
C           4.16        33.4        90.47       
C           5.79        33.76       87.13       
C           4.44        33.1        86.78       
C           3.62        32.97       87.96       
C           4.89        34.28       92.83       
C           6.11        35.21       93.06       
C           6.65        35.64       91.86       
C           4.05        32.58       85.61       
C           2.81        31.95       85.51       
C           2.02        31.85       86.66       
C           2.42        32.29       87.92       
C           6.72        35.54       94.22       
C           8.0         36.17       94.24       
C           8.63        36.42       92.99       
C           7.89        36.28       91.81       
C           6.22        35.01       86.29       
C           6.88        32.64       87.27       
C           3.6         34.9        93.28       
C           5.02        32.87       93.56       
H           3.32        32.8        90.88       
H           7.17        35.45       88.99       
H           6.38        35.15       95.17       
H           8.36        36.49       90.88       
H           4.76        32.46       84.75       
H           1.82        32.18       88.83       
H           7.09        35.53       86.66       
H           6.52        34.64       85.29       
H           5.38636     35.70347    86.17934    
H           6.43        32.0        88.0        
H           6.94        32.17       86.28       
H           7.88595     32.89867    87.60053    
H           4.34        32.3        92.95       
H           4.76        32.89       94.63       
H           6.04138     32.48962    93.54591    
H           2.76        34.28       92.94       
H           3.49        34.76       94.39       
H           3.4891      35.95358    93.02354    
H           2.72        31.28       83.35       
H           8.7         36.24       96.36       
S           0.73        30.79       86.34       
C           2.27        31.21       84.37       
C           1.17        30.53       84.69       
C           13.67       37.9        97.35       
C           12.61       37.04       97.92       
C           13.38       38.42       96.05       
N           12.67       36.39       99.04       
N           10.62       35.99       97.86       
S           11.34       35.49       99.24       
H           12.11       38.38       94.36       
H           14.11       39.03       95.53       
C           12.17       38.07       95.38       
C           11.39       36.78       97.17       
C           11.16       37.3        95.81       
C           28.65       40.23       103.69      
C           28.49       40.61       102.37      
S           27.52       38.97       104.07      
C           23.17       39.41       99.67       
C           23.42       38.75       100.89      
C           22.36       38.01       101.47      
C           21.1        38.11       101.0       
C           20.81       38.79       99.82       
C           21.88       39.37       99.09       
C           19.79       37.75       101.73      
C           18.78       38.11       100.65      
C           19.42       38.73       99.6        
C           24.32       40.31       99.29       
C           25.39       39.91       100.29      
C           24.76       39.09       101.26      
C           17.46       37.7        100.57      
C           16.69       37.97       99.46       
C           17.36       38.71       98.43       
C           18.72       39.1        98.49       
C           26.65       40.43       100.53      
C           27.28       40.11       101.77      
C           26.55       39.27       102.59      
C           25.37       38.61       102.36      
C           19.6        36.26       102.25      
C           19.51       38.82       102.81      
C           24.76       40.02       97.83       
C           24.05       41.86       99.4        
H           21.6        39.92       98.17       
H           22.52       37.45       102.37      
H           27.08       41.22       99.87       
H           24.83       38.11       103.14      
H           17.16       37.02       101.3       
H           19.25       39.72       97.72       
H           20.2        35.97       103.18      
H           18.57       36.09       102.54      
H           20.00068    35.58743    101.49157   
H           19.69       39.8        102.37      
H           18.45       38.81       103.09      
H           20.15627    38.66546    103.67403   
H           24.08       42.28       98.4        
H           24.83       42.33       99.93       
H           23.10532    42.08019    99.8972     
H           24.12       40.51       97.12       
H           25.73       40.55       97.85       
H           24.81045    38.94618    97.64983    
H           14.74       37.06       99.82       
H           28.95       41.44       101.92      
S           16.28       38.92       97.07       
C           15.39       37.65       99.18       
C           14.99       38.13       97.95       
C           30.67       41.97       107.21      
C           30.86       42.61       105.96      
C           30.0        40.8        107.2       
N           31.47       43.82       105.74      
N           30.43       42.8        103.63      
S           31.3        44.07       104.13      
H           28.85       39.28       106.19      
H           29.82       40.4        108.17      
C           29.45       40.21       106.03      
C           30.23       41.99       104.75      
C           29.47       40.81       104.83      
C           34.55       49.65       121.33      
C           33.63       50.21       120.54      
S           34.96       48.03       120.77      
C           31.44       47.22       115.63      
C           32.49       46.58       116.32      
C           33.03       45.35       115.91      
C           32.5        44.77       114.79      
C           31.52       45.46       113.98      
C           31.0        46.71       114.42      
C           32.75       43.39       114.23      
C           31.93       43.45       112.96      
C           31.25       44.67       112.74      
C           31.03       48.52       116.37      
C           32.12       48.66       117.44      
C           32.84       47.48       117.48      
C           32.0        42.51       111.94      
C           31.37       42.81       110.72      
C           30.67       44.01       110.53      
C           30.54       44.93       111.55      
C           32.21       49.61       118.42      
C           33.17       49.33       119.45      
C           33.83       48.14       119.43      
C           33.7        47.13       118.52      
C           34.25       43.37       113.78      
C           32.32       42.11       114.97      
C           30.96       49.68       115.29      
C           29.62       48.32       117.03      
H           30.18       47.17       113.84      
H           33.93       44.99       116.38      
H           31.62       50.54       118.39      
H           34.29       46.19       118.45      
H           32.64       41.64       112.03      
H           29.9        45.85       111.46      
H           34.89       43.35       114.74      
H           34.35       42.45       113.21      
H           34.53232    44.18167    113.10949   
H           31.28       42.09       115.17      
H           32.41       41.24       114.25      
H           32.87133    41.92157    115.89121   
H           29.01       48.46       116.11      
H           29.53       49.19       117.7       
H           29.55739    47.41563    117.63523   
H           30.34       50.57       115.59      
H           30.51       49.27       114.36      
H           31.98122    50.00431    115.0899    
H           32.13       41.18       109.48      
H           33.16       51.16       120.8       
S           30.07       44.07       108.92      
C           31.45       41.99       109.52      
C           30.88       42.58       108.5       
C           36.67       51.25       124.78      
C           35.79       52.08       124.02      
C           36.85       50.01       124.33      
N           35.62       53.39       124.29      
N           34.24       52.65       122.35      
S           34.52       54.03       123.24      
H           36.52       48.59       122.84      
H           37.51       49.34       124.83      
C           36.25       49.55       123.13      
C           35.02       51.61       122.87      
C           35.24       50.26       122.49      
C           40.53       49.48       140.72      
C           40.85       48.62       139.67      
S           39.84       51.0        140.08      
C           40.09       50.06       133.73      
C           39.4        50.96       134.63      
C           38.83       52.12       134.15      
C           38.63       52.25       132.78      
C           39.17       51.25       131.9       
C           39.94       50.2        132.34      
C           37.6        53.11       132.03      
C           37.84       52.6        130.65      
C           38.69       51.49       130.59      
C           40.7        48.85       134.53      
C           40.41       49.31       136.01      
C           39.63       50.52       136.04      
C           37.35       53.11       129.44      
C           37.59       52.4        128.22      
C           38.41       51.22       128.22      
C           38.97       50.76       129.42      
C           40.72       48.56       137.14      
C           40.48       49.15       138.37      
C           39.81       50.4        138.43      
C           39.34       51.11       137.34      
C           36.21       52.66       132.49      
C           37.74       54.69       131.89      
C           40.08       47.48       134.23      
C           42.21       48.89       134.35      
H           40.43       49.51       131.61      
H           38.5        52.95       134.76      
H           41.04       47.57       137.13      
H           38.88       52.09       137.43      
H           36.7        53.94       129.47      
H           39.55       49.89       129.39      
H           36.0        53.16       133.52      
H           36.05       51.57       132.59      
H           35.40126    52.91359    131.80463   
H           38.46       54.86       131.14      
H           36.81       55.14       131.53      
H           37.9806     55.23489    132.80286   
H           42.32       48.93       133.23      
H           42.61       49.77       134.8       
H           42.77423    48.02955    134.70969   
H           40.16       47.46       133.18      
H           40.56       46.79       134.81      
H           39.01702    47.43137    134.46622   
H           36.16       53.35       126.75      
H           41.29       47.59       139.81      
S           38.62       50.65       126.59      
C           36.95       52.61       126.95      
C           37.23       51.6        126.05      
C           42.19       48.36       144.73      
C           40.92       49.0        144.63      
C           42.82       48.21       143.54      
N           40.14       49.37       145.65      
N           39.16       50.15       143.48      
S           38.84       50.26       145.09      
H           42.85       48.37       141.35      
H           43.79       47.75       143.45      
C           42.28       48.63       142.27      
C           40.3        49.49       143.33      
C           40.99       49.2        142.11      
C           50.59       39.46       156.15      
C           50.89       39.71       154.86      
S           49.17       40.36       156.54      
C           47.92       43.41       151.06      
C           47.24       43.09       152.24      
C           45.92       43.58       152.4       
C           45.31       44.35       151.41      
C           46.02       44.77       150.3       
C           47.32       44.2        150.07      
C           43.78       44.72       151.24      
C           43.86       45.69       150.03      
C           45.16       45.62       149.44      
C           49.21       42.44       150.91      
C           49.18       41.77       152.28      
C           48.15       42.25       153.06      
C           42.85       46.44       149.41      
C           43.1        46.89       148.11      
C           44.36       46.63       147.56      
C           45.46       46.09       148.2       
C           50.24       41.04       152.78      
C           50.11       40.68       154.18      
C           49.04       41.13       154.99      
C           48.03       41.88       154.48      
C           42.89       43.47       150.93      
C           43.09       45.48       152.41      
C           49.22       41.34       149.82      
C           50.5        43.25       150.8       
H           47.89       44.35       149.11      
H           45.3        43.37       153.26      
H           51.05       40.72       152.11      
H           47.16       42.23       155.09      
H           41.91       46.54       149.89      
H           46.39       45.96       147.7       
H           43.01       42.94       151.81      
H           43.28       42.86       150.13      
H           41.84782    43.68125    150.69058   
H           42.92       44.75       153.19      
H           42.16       45.81       152.0       
H           43.62607    46.37344    152.73015   
H           51.23       42.44       150.73      
H           50.68       43.88       151.66      
H           50.55724    43.93694    149.95564   
H           49.21       41.83       148.79      
H           50.19       40.86       149.78      
H           48.4329     40.59584    149.94164   
H           41.17       47.68       147.33      
H           51.74       39.2        154.36      
S           44.4        47.19       145.88      
C           42.25       47.58       147.2       
C           42.8        47.85       145.99      
C           51.87       36.17       158.85      
C           52.0        36.07       157.47      
C           51.2        37.34       159.2       
N           52.53       35.02       156.87      
N           51.92       36.6        155.27      
S           52.8        35.24       155.29      
H           50.08       39.14       158.74      
H           50.89       37.54       160.22      
C           50.78       38.38       158.29      
C           51.64       37.08       156.54      
C           51.01       38.31       156.96      
C           55.57       23.96       169.44      
C           55.2        23.61       168.2       
S           55.25       25.63       169.89      
C           53.28       27.97       164.33      
C           53.49       28.45       165.67      
C           53.47       29.83       166.04      
C           53.39       30.68       164.94      
C           52.97       30.26       163.65      
C           52.89       28.9        163.33      
C           53.74       32.16       164.97      
C           52.97       32.59       163.67      
C           52.59       31.52       162.92      
C           53.71       26.51       164.12      
C           53.98       26.18       165.61      
C           53.85       27.29       166.46      
C           52.87       33.89       163.17      
C           52.53       34.07       161.82      
C           52.05       32.94       161.11      
C           52.05       31.66       161.64      
C           54.39       24.96       166.13      
C           54.77       24.79       167.46      
C           54.61       25.92       168.3       
C           54.14       27.17       167.8       
C           53.26       32.86       166.21      
C           55.24       32.33       164.78      
C           52.69       25.56       163.43      
C           55.05       26.41       163.44      
H           52.49       28.61       162.38      
H           53.67       30.19       167.02      
H           54.3        24.13       165.47      
H           54.2        28.03       168.44      
H           53.28       34.73       163.71      
H           51.8        30.84       160.96      
H           53.79       33.79       166.18      
H           53.67       32.41       167.16      
H           52.18947    33.06391    166.23185   
H           55.49       31.86       163.82      
H           55.53       33.41       164.82      
H           55.85613    31.74888    165.46614   
H           54.76       26.88       162.51      
H           55.32       25.43       163.21      
H           55.8104     26.996      163.95624   
H           52.67       25.66       162.32      
H           53.02       24.49       163.53      
H           51.68494    25.67865    163.83482   
H           52.83       36.21       161.57      
H           55.27       22.63       167.83      
S           51.62       33.43       159.49      
C           52.56       35.27       161.08      
C           52.15       35.1        159.83      
C           56.13       21.4        172.92      
C           55.3        20.88       171.88      
C           56.8        22.62       172.73      
N           54.59       19.74       171.82      
N           54.37       21.11       169.88      
S           53.86       19.62       170.43      
H           57.0        24.31       171.53      
H           57.41       23.0        173.5       
C           56.66       23.35       171.54      
C           55.22       21.69       170.7       
C           55.86       22.96       170.55      
C           52.48       22.07       188.51      
C           51.81       21.15       187.77      
S           53.97       22.47       187.82      
C           53.63       19.42       182.21      
C           54.45       20.4        182.86      
C           55.65       20.88       182.33      
C           56.02       20.4        181.06      
C           55.08       19.61       180.34      
C           53.92       19.08       180.87      
C           57.2        20.87       180.23      
C           56.73       20.31       178.9       
C           55.47       19.7        178.94      
C           52.39       19.03       183.06      
C           52.62       19.97       184.28      
C           53.88       20.64       184.23      
C           57.32       20.56       177.73      
C           56.66       20.35       176.53      
C           55.33       19.9        176.61      
C           54.68       19.52       177.8       
C           51.88       20.18       185.42      
C           52.37       20.89       186.5       
C           53.62       21.5        186.41      
C           54.39       21.41       185.26      
C           57.21       22.41       180.31      
C           58.55       20.19       180.6       
C           51.13       19.36       182.22      
C           52.29       17.59       183.67      
H           53.38       18.36       180.31      
H           56.31       21.51       182.87      
H           50.85       19.76       185.44      
H           55.31       21.91       185.11      
H           58.32       21.06       177.66      
H           53.69       19.03       177.77      
H           57.39       22.85       181.28      
H           58.05       22.76       179.71      
H           56.26919    22.83698    179.96263   
H           58.44       19.16       180.65      
H           59.25       20.35       179.78      
H           58.99606    20.61515    181.4991    
H           51.24       17.4        183.83      
H           52.85       17.53       184.55      
H           52.62643    16.82602    182.9691    
H           51.0        18.61       181.39      
H           50.21       19.49       182.75      
H           51.28563    20.32914    181.74604   
H           58.0        21.2        174.96      
H           50.85       20.76       188.12      
S           54.61       20.17       175.02      
C           57.04       20.83       175.23      
C           56.1        20.69       174.23      
C           51.64       24.36       192.25      
C           50.53       23.97       191.42      
C           52.82       23.94       191.83      
N           49.18       24.14       191.65      
N           49.71       22.8        189.48      
S           48.41       23.48       190.36      
H           54.14       22.94       190.46      
H           53.73       24.19       192.34      
C           53.08       23.22       190.64      
C           50.81       23.19       190.16      
C           52.14       22.88       189.71      
C           55.7        35.4        203.71      
C           55.74       34.1        203.96      
S           55.0        35.73       202.13      
C           53.91       29.83       200.1       
C           53.35       31.12       199.93      
C           52.62       31.51       198.84      
C           52.26       30.5        197.95      
C           52.74       29.23       198.15      
C           53.6        28.83       199.22      
C           51.13       30.49       196.95      
C           51.37       29.07       196.28      
C           52.33       28.32       197.09      
C           54.53       29.73       201.45      
C           54.59       31.17       201.87      
C           54.01       31.98       200.93      
C           50.68       28.49       195.22      
C           51.18       27.25       194.76      
C           52.24       26.56       195.53      
C           52.64       27.02       196.76      
C           55.25       31.8        202.89      
C           55.3        33.23       202.89      
C           54.72       34.0        201.88      
C           54.11       33.34       200.83      
C           49.72       30.54       197.62      
C           51.34       31.46       195.74      
C           53.69       28.93       202.45      
C           55.97       29.24       201.22      
H           54.03       27.88       199.14      
H           52.21       32.52       198.87      
H           55.59       31.22       203.81      
H           53.62       33.8        200.04      
H           50.02       29.06       194.68      
H           53.39       26.51       197.36      
H           49.65       31.51       198.21      
H           49.03       30.48       196.81      
H           49.49846    29.71616    198.29846   
H           52.24       31.22       195.18      
H           50.5        31.39       195.06      
H           51.36127    32.50206    196.059     
H           56.57       29.7        201.99      
H           56.34       29.82       200.29      
H           56.15717    28.16737    201.16961   
H           53.39       27.94       201.97      
H           54.17       28.75       203.39      
H           52.83008    29.52305    202.76135   
H           49.99       26.8        192.94      
H           56.01       33.68       204.92      
S           52.76       25.13       194.69      
C           50.77       26.49       193.58      
C           51.55       25.37       193.35      
C           56.26       38.63       206.68      
C           56.77       37.3        206.91      
C           55.64       38.8        205.46      
N           57.55       36.93       207.94      
N           57.17       35.05       206.46      
S           57.89       35.32       207.85      
H           55.14       37.94       203.55      
H           55.1        39.71       205.13      
C           55.62       37.74       204.47      
C           56.64       36.2        206.01      
C           56.0        36.46       204.68      
C           53.14       50.5        217.83      
C           52.61       50.66       216.57      
S           54.16       49.11       217.95      
C           53.84       46.42       212.22      
C           54.23       46.11       213.6       
C           54.96       44.97       213.95      
C           55.18       44.06       212.94      
C           54.71       44.28       211.6       
C           54.07       45.5        211.24      
C           56.02       42.79       212.98      
C           55.86       42.32       211.57      
C           55.1        43.18       210.76      
C           53.31       47.8        212.19      
C           53.37       48.3        213.65      
C           54.06       47.35       214.44      
C           56.6        41.36       210.95      
C           56.37       41.02       209.64      
C           55.52       41.88       208.84      
C           54.8        42.96       209.45      
C           52.85       49.42       214.23      
C           53.09       49.66       215.61      
C           53.88       48.71       216.3       
C           54.36       47.53       215.73      
C           57.46       43.2        213.32      
C           55.43       41.78       214.04      
C           54.17       48.66       211.22      
C           51.85       47.73       211.74      
H           53.77       45.67       210.22      
H           55.47       44.92       214.98      
H           52.15       50.01       213.82      
H           54.92       46.86       216.32      
H           57.23       40.71       211.58      
H           54.08       43.61       208.91      
H           58.08       42.28       213.39      
H           57.39       43.53       214.35      
H           57.91862    43.8992     212.6208    
H           55.57       42.1        215.1       
H           56.05       40.86       214.06      
H           54.3758     41.58768    213.84056   
H           51.79       47.95       210.66      
H           51.28       48.48       212.27      
H           51.36919    46.76837    211.91941   
H           54.33       48.23       210.26      
H           55.08       48.94       211.64      
H           53.69561    49.6017     210.94386   
H           57.39       39.09       209.37      
H           51.92       51.49       216.3       
S           55.24       41.14       207.29      
C           56.79       39.84       208.9       
C           56.18       39.71       207.69      
C           52.41       52.54       221.68      
C           51.42       52.63       220.63      
C           53.53       51.81       221.39      
N           50.28       53.32       220.69      
N           50.51       52.18       218.54      
S           49.54       53.33       219.19      
H           54.5        50.57       219.93      
H           54.31       51.62       222.01      
C           53.72       51.27       220.02      
C           51.64       52.06       219.32      
C           52.82       51.33       219.0       
C           48.42       58.14       237.02      
C           47.75       57.15       236.36      
S           49.85       58.59       236.08      
C           49.4        55.24       230.79      
C           50.36       56.11       231.35      
C           51.61       56.41       230.73      
C           51.82       55.93       229.47      
C           50.8        55.05       228.82      
C           49.48       54.87       229.45      
C           53.08       55.99       228.54      
C           52.61       55.03       227.38      
C           51.27       54.67       227.51      
C           48.42       54.62       231.79      
C           48.56       55.66       232.9       
C           49.81       56.41       232.71      
C           53.31       54.64       226.22      
C           52.59       54.03       225.17      
C           51.22       53.71       225.31      
C           50.54       53.99       226.5       
C           47.77       55.85       234.02      
C           48.25       56.78       235.05      
C           49.45       57.46       234.82      
C           50.29       57.28       233.71      
C           53.18       57.5        228.04      
C           54.46       55.46       229.2       
C           46.99       54.61       231.3       
C           48.82       53.18       232.32      
H           48.75       54.12       229.02      
H           52.36       57.02       231.29      
H           46.84       55.39       234.19      
H           51.2        57.85       233.61      
H           54.32       54.98       226.04      
H           49.53       53.71       226.65      
H           53.5        58.05       228.88      
H           54.04       57.52       227.35      
H           52.26724    57.86086    227.56593   
H           54.3        54.41       229.44      
H           55.28       55.4        228.46      
H           54.75327    55.9607     230.12271   
H           47.91       52.57       232.34      
H           49.34       53.36       233.32      
H           49.6055     52.6761     231.75681   
H           46.82       53.84       230.55      
H           46.37       54.48       232.2       
H           46.62746    55.53086    230.84319   
H           54.06       53.91       223.59      
H           46.8        56.81       236.67      
S           50.63       52.92       223.86      
C           53.02       53.69       223.85      
C           52.15       53.11       223.02      
C           48.02       60.06       240.97      
C           47.45       58.84       240.7       
C           48.66       60.56       239.84      
N           47.01       58.0        241.68      
N           47.04       56.88       239.54      
S           46.51       56.59       241.02      
H           49.49       60.42       237.95      
H           49.35       61.42       239.94      
C           48.85       59.89       238.63      
C           47.61       58.11       239.44      
C           48.28       58.66       238.33      
H           0.59        29.95       84.0        
H           47.85       60.57       241.93      
