612

C           20.51       96.11       56.22       
C           21.3        95.07       56.53       
S           20.61       96.29       54.49       
C           25.43       92.76       52.66       
C           24.45       93.64       52.1        
C           24.53       94.19       50.84       
C           25.65       93.86       50.07       
C           26.6        92.87       50.58       
C           26.57       92.44       51.94       
C           26.07       94.47       48.77       
C           27.08       93.35       48.34       
C           27.48       92.54       49.43       
C           25.07       92.38       54.13       
C           23.83       93.23       54.41       
C           23.54       93.93       53.18       
C           27.61       93.12       47.07       
C           28.69       92.21       46.94       
C           29.14       91.51       48.06       
C           28.5        91.6        49.28       
C           23.19       93.51       55.58       
C           22.14       94.48       55.56       
C           21.81       95.05       54.33       
C           22.52       94.83       53.14       
C           24.83       94.48       47.84       
C           26.72       95.89       48.85       
C           24.77       90.86       54.19       
C           26.18       92.7        55.25       
H           27.31       91.73       52.32       
H           23.74       94.84       50.47       
H           23.52       93.14       56.52       
H           22.25       95.32       52.21       
H           27.23       93.62       46.14       
H           28.68       91.03       50.2        
H           24.09       95.35       48.06       
H           25.19       94.64       46.86       
H           24.31648    93.51899    47.81066    
H           27.63       95.69       49.42       
H           27.04       96.4        47.88       
H           26.17017    96.581      49.48899    
H           26.55       91.82       55.76       
H           25.75       93.43       55.96       
H           27.05788    93.22963    54.87998    
H           25.65       90.21       54.02       
H           24.44       90.62       55.19       
H           23.98669    90.57973    53.48574    
H           29.31       92.3        44.8        
H           21.37       94.77       57.59       
S           30.54       90.6        47.64       
C           29.46       91.85       45.78       
C           30.54       91.1        45.96       
C           17.76       98.91       58.36       
C           17.89       97.53       58.7        
C           18.5        99.19       57.25       
N           17.28       96.96       59.77       
N           18.75       95.38       58.57       
S           17.82       95.4        59.85       
H           20.05       98.7        55.82       
H           18.41       100.17      56.72       
C           19.42       98.3        56.63       
C           18.77       96.6        58.01       
C           19.57       97.02       56.95       
C           11.18       113.25      60.11       
C           12.52       113.06      60.3        
S           10.25       111.84      60.65       
C           14.84       107.6       61.69       
C           13.43       107.69      61.86       
C           12.75       106.51      61.96       
C           13.44       105.31      61.71       
C           14.87       105.21      61.5        
C           15.57       106.37      61.56       
C           12.86       103.91      61.32       
C           14.13       103.07      61.15       
C           15.29       103.86      61.04       
C           15.38       108.95      61.3        
C           14.21       109.81      61.38       
C           13.0        109.08      61.69       
C           14.17       101.76      60.62       
C           15.43       101.34      60.06       
C           16.6        102.1       60.22       
C           16.58       103.41      60.67       
C           14.09       111.17      60.94       
C           12.88       111.78      60.76       
C           11.74       110.93      60.98       
C           11.8        109.64      61.46       
C           11.92       103.31      62.48       
C           12.13       103.89      59.93       
C           16.36       109.44      62.36       
C           15.91       109.0       59.87       
H           16.6        106.33      61.23       
H           11.73       106.56      62.32       
H           14.93       111.75      60.77       
H           10.9        109.01      61.62       
H           13.3        101.17      60.57       
H           17.49       104.08      60.68       
H           11.18       104.04      62.71       
H           11.44       102.53      61.94       
H           12.50611    102.89337   63.29914    
H           12.79       104.34      59.22       
H           11.95       102.94      59.48       
H           11.18179    104.42686   59.95789    
H           16.9        108.59      59.91       
H           16.08       110.05      59.49       
H           15.315      108.44651   59.14355    
H           17.02       108.64      62.55       
H           16.84       110.38      62.06       
H           15.89406    109.53736   63.34057    
H           14.93       99.37       59.29       
H           13.22       113.84      60.1        
S           17.92       101.44      59.35       
C           15.75       100.03      59.51       
C           17.02       99.94       59.04       
C           9.55        116.14      57.09       
C           10.72       116.49      57.86       
C           8.87        115.01      57.58       
N           11.43       117.58      57.77       
N           12.39       116.03      59.46       
S           12.58       117.58      58.92       
H           8.84        113.24      58.78       
H           7.86        114.72      57.22       
C           9.37        114.15      58.64       
C           11.21       115.59      58.94       
C           10.57       114.37      59.36       
C           -1.03       123.17      46.71       
C           -0.86       121.76      46.82       
S           0.2         123.98      47.74       
C           3.76        119.15      49.91       
C           3.7         120.58      49.91       
C           4.61        121.43      50.6        
C           5.58        120.76      51.37       
C           5.57        119.34      51.36       
C           4.7         118.52      50.69       
C           6.74        121.35      52.24       
C           7.25        120.03      52.82       
C           6.62        118.83      52.33       
C           2.57        118.47      49.11       
C           1.85        119.8       48.79       
C           2.48        120.96      49.25       
C           8.08        119.85      53.91       
C           8.35        118.58      54.48       
C           7.74        117.42      53.93       
C           6.88        117.55      52.87       
C           0.73        120.0       48.01       
C           0.24        121.34      47.7        
C           0.89        122.47      48.24       
C           2.01        122.29      49.08       
C           7.83        122.1       51.42       
C           6.3         122.3       53.38       
C           3.05        117.8       47.84       
C           1.86        117.5       50.09       
H           4.61        117.47      50.81       
H           4.46        122.49      50.58       
H           0.2         119.07      47.57       
H           2.57        123.09      49.47       
H           8.6         120.64      54.44       
H           6.33        116.7       52.62       
H           8.2         122.94      51.93       
H           7.36        122.68      50.61       
H           8.60586     121.45843   51.00223    
H           6.11        123.26      52.9        
H           7.17        122.51      54.01       
H           5.52365     121.91888   54.04343    
H           2.55        116.63      50.29       
H           1.8         118.05      51.0        
H           0.83976     117.18503   49.87089    
H           3.66        116.93      48.09       
H           2.22        117.3       47.33       
H           3.57427     118.46457   47.15328    
H           9.81        118.85      56.12       
H           -1.53       121.03      46.31       
S           8.11        115.98      54.86       
C           9.15        118.18      55.57       
C           9.05        116.89      56.02       
C           -3.53       125.83      44.41       
C           -3.75       124.48      44.32       
C           -2.72       126.23      45.45       
N           -4.62       123.86      43.46       
N           -3.14       122.27      44.7        
S           -4.45       122.21      43.7        
H           -1.34       125.72      47.07       
H           -2.54       127.31      45.67       
C           -2.01       125.3       46.26       
C           -2.94       123.55      45.04       
C           -1.97       123.98      45.97       
C           -11.5       138.18      37.24       
C           -12.19      137.08      37.42       
S           -9.79       138.04      37.65       
C           -9.3        132.13      39.61       
C           -8.62       133.31      39.44       
C           -7.26       133.47      39.73       
C           -6.59       132.44      40.3        
C           -7.3        131.23      40.49       
C           -8.7        131.07      40.13       
C           -5.06       132.16      40.43       
C           -5.11       130.81      41.11       
C           -6.38       130.22      41.09       
C           -10.8       132.39      39.37       
C           -10.84      133.86      38.86       
C           -9.48       134.3       38.9        
C           -4.02       130.06      41.62       
C           -4.28       128.84      42.27       
C           -5.6        128.34      42.34       
C           -6.69       128.96      41.6        
C           -11.78      134.74      38.42       
C           -11.37      136.02      37.97       
C           -9.99       136.43      38.04       
C           -9.08       135.55      38.52       
C           -4.34       132.12      39.08       
C           -4.47       133.15      41.47       
C           -11.41      131.36      38.31       
C           -11.4       132.26      40.79       
H           -9.21       130.16      40.27       
H           -6.74       134.43      39.62       
H           -12.81      134.34      38.31       
H           -8.0        135.77      38.56       
H           -2.96       130.41      41.56       
H           -7.69       128.71      41.69       
H           -3.57       132.87      39.02       
H           -5.11       132.57      38.39       
H           -3.99962    131.13971   38.74643    
H           -3.95       133.95      41.0        
H           -3.63       132.61      41.97       
H           -5.15865    133.47694   42.24908    
H           -11.34      131.22      41.08       
H           -10.9       132.89      41.56       
H           -12.44305   132.55382   40.90753    
H           -12.16      130.6       38.76       
H           -10.57      130.71      38.05       
H           -11.74491   131.76772   37.35622    
H           -2.42       128.22      43.27       
H           -13.28      137.1       37.23       
S           -5.78       126.96      43.33       
C           -3.44       128.0       43.05       
C           -4.07       126.87      43.49       
C           -12.49      142.1       35.67       
C           -13.58      141.29      36.21       
C           -11.23      141.61      35.68       
N           -14.86      141.69      36.31       
N           -14.41      139.5       37.39       
S           -15.65      140.52      37.25       
H           -9.97       139.99      36.23       
H           -10.4       142.11      35.19       
C           -10.98      140.37      36.33       
C           -13.31      140.04      36.86       
C           -11.98      139.49      36.75       
C           -12.72      152.86      23.13       
C           -12.1       153.25      24.25       
S           -13.73      151.42      23.44       
C           -12.05      149.6       29.3        
C           -12.96      149.29      28.3        
C           -13.85      148.16      28.43       
C           -13.79      147.42      29.59       
C           -12.76      147.7       30.56       
C           -11.88      148.79      30.37       
C           -14.79      146.47      30.13       
C           -14.02      146.05      31.41       
C           -12.81      146.74      31.67       
C           -11.23      150.83      28.83       
C           -11.94      151.25      27.54       
C           -12.86      150.2       27.15       
C           -14.36      145.08      32.22       
C           -13.54      144.65      33.26       
C           -12.25      145.19      33.46       
C           -11.87      146.3       32.65       
C           -11.73      152.32      26.7        
C           -12.27      152.33      25.4        
C           -13.12      151.25      25.05       
C           -13.38      150.19      25.91       
C           -16.15      147.07      30.56       
C           -15.01      145.17      29.3        
C           -11.42      152.03      29.81       
C           -9.69       150.62      28.53       
H           -11.21      149.18      31.21       
H           -14.71      148.01      27.78       
H           -11.01      153.04      26.99       
H           -14.1       149.43      25.57       
H           -15.24      144.48      32.03       
H           -10.87      146.67      32.71       
H           -16.63      147.58      29.73       
H           -16.77      146.21      30.85       
H           -16.05437   147.73202   31.42063    
H           -13.99      144.83      29.24       
H           -15.59      144.41      29.72       
H           -15.38197   145.33844   28.28937    
H           -9.0        151.09      29.24       
H           -9.49       150.95      27.53       
H           -9.44968    149.56405   28.6538     
H           -11.05      151.86      30.8        
H           -10.71      152.79      29.52       
H           -12.45266   152.36492   29.90768    
H           -14.65      142.94      33.93       
H           -11.28      154.04      24.24       
S           -11.38      144.31      34.6        
C           -13.77      143.47      33.99       
C           -12.67      143.14      34.73       
C           -11.26      153.81      19.07       
C           -11.17      154.83      20.11       
C           -12.11      152.71      19.42       
N           -10.39      155.97      20.03       
N           -11.26      155.52      22.3        
S           -10.44      156.67      21.49       
H           -13.24      151.66      20.94       
H           -12.36      151.98      18.66       
C           -12.64      152.57      20.76       
C           -11.64      154.54      21.45       
C           -12.46      153.42      21.77       
C           -2.89       150.88      4.87        
C           -3.82       150.11      5.51        
S           -2.81       152.42      5.72        
C           -6.53       151.32      10.85       
C           -5.75       152.42      10.41       
C           -5.66       153.58      11.2        
C           -6.41       153.73      12.32       
C           -7.21       152.67      12.76       
C           -7.27       151.43      12.02       
C           -6.46       155.03      13.19       
C           -7.38       154.43      14.32       
C           -7.79       153.12      14.0        
C           -6.43       150.17      9.91        
C           -5.62       150.68      8.74        
C           -5.1        151.99      9.08        
C           -7.97       155.05      15.41       
C           -8.92       154.32      16.18       
C           -9.29       153.04      15.84       
C           -8.64       152.41      14.81       
C           -5.3        149.99      7.61        
C           -4.32       150.61      6.74        
C           -3.83       151.89      7.03        
C           -4.17       152.62      8.25        
C           -5.1        155.5       13.72       
C           -7.21       156.15      12.45       
C           -5.78       148.94      10.63       
C           -7.74       149.72      9.25        
H           -7.77       150.47      12.37       
H           -4.96       154.4       10.94       
H           -5.66       148.99      7.39        
H           -3.74       153.58      8.47        
H           -7.75       156.12      15.69       
H           -8.75       151.37      14.67       
H           -5.01       156.57      13.49       
H           -4.43       154.91      13.08       
H           -4.89492    155.21713   14.75248    
H           -8.18       155.76      12.12       
H           -7.43       156.87      13.13       
H           -6.63247    156.46312   11.58022    
H           -7.57       148.81      8.66        
H           -8.2        150.43      8.54        
H           -8.55725    149.40623   9.89942     
H           -6.49       148.56      11.38       
H           -5.64       148.18      9.79        
H           -4.81945    149.1872    11.08203    
H           -9.59       155.86      17.61       
H           -4.16       149.09      5.15        
S           -10.3       152.32      17.05       
C           -9.73       154.81      17.24       
C           -10.56      153.87      17.8        
C           -1.07       150.39      0.93        
C           -2.0        149.42      1.47        
C           -0.66       151.34      1.81        
N           -2.41       148.28      0.74        
N           -3.09       148.33      3.11        
S           -3.25       147.36      1.84        
H           -1.07       152.33      3.72        
H           0.12        152.1       1.57        
C           -1.35       151.5       3.08        
C           -2.47       149.49      2.77        
C           -2.25       150.61      3.6         
C           1.21        153.14      -15.39      
C           1.31        154.21      -14.52      
S           0.48        151.71      -14.66      
C           0.18        153.45      -8.56       
C           -0.02       152.26      -9.39       
C           -0.25       151.06      -8.82       
C           -0.28       150.89      -7.42       
C           -0.01       152.01      -6.59       
C           0.15        153.29      -7.18       
C           -0.37       149.57      -6.61       
C           -0.44       150.2       -5.21       
C           -0.1        151.57      -5.22       
C           0.58        154.6       -9.42       
C           0.42        154.03      -10.86      
C           0.09        152.64      -10.77      
C           -0.76       149.5       -4.09       
C           -0.62       150.17      -2.85       
C           -0.19       151.55      -2.82       
C           0.03        152.27      -3.99       
C           0.85        154.6       -11.99      
C           0.9         153.81      -13.2       
C           0.36        152.51      -13.11      
C           -0.01       151.88      -11.94      
C           -1.55       148.67      -6.94       
C           1.0         148.72      -6.67       
C           -0.36       155.89      -9.34       
C           2.08        154.89      -9.26       
H           0.35        154.1       -6.58       
H           -0.57       150.29      -9.5        
H           1.18        155.69      -11.93      
H           -0.22       150.84      -11.83      
H           -0.98       148.46      -4.14       
H           0.19        153.37      -4.08       
H           -1.47       148.46      -7.99       
H           -1.56       147.85      -6.22       
H           -2.49062    149.21267   -6.84594    
H           1.81        149.17      -5.99       
H           0.64        147.76      -6.24       
H           1.43276     148.70581   -7.67031    
H           2.51        155.18      -10.21      
H           2.68        153.99      -9.15       
H           2.36072     155.59883   -8.48099    
H           -0.43       156.43      -8.39       
H           -0.03       156.72      -10.0       
H           -1.40095    155.6579    -9.56507    
H           -1.24       148.64      -1.41       
H           1.74        155.16      -14.82      
S           -0.36       152.06      -1.14       
C           -0.86       149.62      -1.54       
C           -0.7        150.47      -0.46       
C           2.26        152.4       -19.51      
C           2.81        153.55      -18.94      
C           1.18        151.84      -18.85      
N           3.78        154.23      -19.45      
N           3.14        154.95      -17.16      
S           4.03        155.47      -18.38      
H           0.02        151.6       -17.04      
H           0.65        151.05      -19.24      
C           0.88        152.11      -17.51      
C           2.43        153.87      -17.55      
C           1.58        152.98      -16.8       
C           7.87        142.33      -31.39      
C           6.93        142.05      -30.44      
S           8.31        144.06      -31.15      
C           4.33        145.9       -26.53      
C           5.4         146.44      -27.25      
C           5.9         147.77      -27.14      
C           5.2         148.65      -26.32      
C           4.17        148.1       -25.49      
C           3.75        146.73      -25.6       
C           5.56        150.06      -25.94      
C           4.57        150.28      -24.82      
C           3.77        149.14      -24.6       
C           3.95        144.52      -26.98      
C           5.04        144.19      -28.0       
C           5.84        145.37      -28.13      
C           4.56        151.31      -23.95      
C           3.72        151.21      -22.86      
C           2.81        150.18      -22.67      
C           3.0         149.03      -23.44      
C           5.31        143.03      -28.66      
C           6.45        143.08      -29.56      
C           7.16        144.31      -29.83      
C           6.87        145.49      -29.12      
C           6.99        150.22      -25.33      
C           5.31        151.08      -27.11      
C           3.89        143.57      -25.77      
C           2.6         144.44      -27.82      
H           3.01        146.29      -24.94      
H           6.64        148.12      -27.78      
H           4.56        142.22      -28.59      
H           7.39        146.44      -29.18      
H           5.29        152.12      -23.93      
H           2.52        148.06      -23.21      
H           7.7         150.24      -26.13      
H           7.02        151.17      -24.8       
H           7.24461     149.48527   -24.56617   
H           4.26        151.27      -27.33      
H           5.74        152.05      -26.8       
H           5.70194     150.78242   -28.08259   
H           1.95        143.66      -27.47      
H           2.75        144.22      -28.87      
H           2.02026     145.35731   -27.71726   
H           3.5         142.59      -26.13      
H           3.19        144.06      -25.09      
H           4.88587     143.46253   -25.34013   
H           4.19        152.99      -21.68      
H           6.57        141.0       -30.44      
S           1.97        150.25      -21.17      
C           3.56        152.14      -21.79      
C           2.68        151.79      -20.8       
C           10.91       140.06      -33.68      
C           9.75        139.46      -33.17      
C           10.9        141.41      -33.49      
N           9.58        138.13      -33.18      
N           7.67        139.26      -32.09      
S           8.13        137.73      -32.55      
H           9.97        143.19      -32.71      
H           11.8        141.96      -33.73      
C           9.83        142.1       -32.85      
C           8.67        140.09      -32.5       
C           8.75        141.5       -32.26      
C           23.34       136.14      -43.86      
C           23.45       137.12      -42.93      
S           21.88       135.22      -43.52      
C           19.35       138.24      -38.63      
C           19.09       137.09      -39.49      
C           17.91       136.36      -39.46      
C           16.94       136.71      -38.56      
C           17.12       137.81      -37.72      
C           18.32       138.61      -37.77      
C           15.52       136.13      -38.48      
C           14.98       136.91      -37.24      
C           15.88       138.02      -37.0       
C           20.77       138.87      -38.83      
C           21.18       137.98      -39.99      
C           20.32       136.9       -40.24      
C           13.65       136.91      -36.73      
C           13.31       138.02      -35.94      
C           14.26       139.04      -35.69      
C           15.51       139.04      -36.19      
C           22.24       138.14      -40.9       
C           22.47       137.19      -41.9       
C           21.51       136.12      -42.1       
C           20.45       135.92      -41.22      
C           14.69       136.43      -39.74      
C           15.41       134.59      -38.21      
C           20.75       140.31      -39.4       
C           21.66       138.68      -37.53      
H           18.44       139.42      -37.02      
H           17.75       135.53      -40.11      
H           22.88       139.06      -40.86      
H           19.73       135.19      -41.39      
H           12.76       136.31      -37.09      
H           16.14       139.89      -36.05      
H           13.71       136.19      -39.57      
H           14.94       135.73      -40.51      
H           14.70401    137.4597    -40.09724   
H           15.75       134.02      -39.11      
H           14.36       134.23      -38.08      
H           15.94584    134.23748   -37.32869   
H           22.72       138.78      -37.83      
H           21.41       137.68      -37.22      
H           21.46198    139.3943    -36.73083   
H           20.62       141.06      -38.62      
H           21.71       140.54      -39.74      
H           19.96571    140.36083   -40.15525   
H           11.21       137.62      -35.37      
H           24.19       137.93      -43.09      
S           13.53       140.26      -34.65      
C           12.02       138.33      -35.34      
C           12.0        139.4       -34.45      
C           26.49       135.22      -46.85      
C           25.25       134.47      -46.88      
C           26.6        136.12      -45.78      
N           24.94       133.58      -47.86      
N           23.08       133.95      -46.24      
S           23.46       132.96      -47.51      
H           25.72       137.06      -44.11      
H           27.51       136.73      -45.63      
C           25.47       136.41      -44.94      
C           24.15       134.74      -45.95      
C           24.28       135.76      -44.92      
C           37.51       136.66      -59.27      
C           37.22       137.75      -58.47      
S           36.63       135.21      -58.85      
C           33.59       137.11      -53.57      
C           33.66       135.94      -54.33      
C           33.02       134.76      -53.97      
C           32.26       134.75      -52.82      
C           32.11       135.93      -52.1       
C           32.7        137.14      -52.49      
C           31.55       133.56      -52.2       
C           30.8        134.29      -51.2       
C           31.21       135.63      -50.95      
C           34.26       138.3       -54.3       
C           35.03       137.56      -55.41      
C           34.59       136.18      -55.5       
C           29.79       133.76      -50.4       
C           29.23       134.52      -49.36      
C           29.73       135.82      -49.1       
C           30.71       136.42      -49.89      
C           35.83       138.12      -56.39      
C           36.32       137.32      -57.4       
C           35.96       135.95      -57.47      
C           35.11       135.38      -56.51      
C           30.63       132.72      -53.13      
C           32.51       132.79      -51.22      
C           33.1        139.27      -54.7       
C           35.2        138.92      -53.24      
H           32.49       138.1       -52.0       
H           33.07       133.78      -54.42      
H           36.18       139.17      -56.3       
H           34.98       134.31      -56.47      
H           29.42       132.75      -50.58      
H           30.96       137.46      -49.74      
H           31.31       132.51      -53.95      
H           30.35       131.8       -52.67      
H           29.85965    133.31527   -53.62022   
H           32.96       133.51      -50.51      
H           32.0        132.03      -50.62      
H           33.34654    132.30682   -51.72481   
H           34.52       139.19      -52.42      
H           35.87       138.12      -52.8       
H           35.84034    139.74329   -53.55665   
H           33.41       140.28      -54.5       
H           32.13       139.04      -54.12      
H           32.81391    139.24139   -55.7514    
H           27.54       133.23      -48.8       
H           37.67       138.76      -58.54      
S           28.7        136.52      -47.84      
C           28.04       134.18      -48.67      
C           27.66       135.1       -47.75      
C           40.36       136.27      -62.71      
C           40.52       137.32      -61.73      
C           39.17       135.62      -62.5       
N           41.57       138.19      -61.65      
N           40.01       138.37      -59.66      
S           41.32       139.12      -60.29      
H           37.44       135.09      -61.36      
H           38.86       134.8       -63.12      
C           38.29       135.77      -61.38      
C           39.65       137.45      -60.56      
C           38.47       136.6       -60.38      
H           31.44       91.11       45.29       
H           41.05       135.99      -63.46      
