612

C           75.39       5.72        18.65       
C           76.24       4.89        19.27       
S           75.92       5.91        17.01       
C           80.39       1.67        16.3        
C           79.72       2.61        15.53       
C           79.82       2.7         14.13       
C           80.67       1.79        13.45       
C           81.35       0.84        14.24       
C           81.22       0.75        15.64       
C           81.08       1.76        12.0        
C           81.92       0.54        12.0        
C           82.18       0.05        13.34       
C           80.34       1.95        17.79       
C           79.21       2.98        17.79       
C           78.95       3.41        16.42       
C           82.75       0.08        10.92       
C           83.45       -1.11       11.08       
C           83.53       -1.63       12.4        
C           82.99       -1.05       13.52       
C           78.4        3.42        18.82       
C           77.31       4.34        18.48       
C           77.28       4.84        17.15       
C           78.08       4.46        16.12       
C           79.88       1.66        10.99       
C           82.07       2.91        11.6        
C           79.82       0.59        18.46       
C           81.67       2.38        18.49       
H           81.77       0.04        16.18       
H           79.26       3.42        13.55       
H           78.36       3.04        19.82       
H           78.05       4.78        15.08       
H           82.6        0.45        9.9         
H           83.06       -1.46       14.5        
H           79.21       2.53        10.91       
H           80.27       1.44        9.96        
H           79.27173    0.7838      11.21448    
H           83.08       2.81        12.0        
H           82.23       2.96        10.49       
H           81.75505    3.89779     11.93642    
H           82.34       1.53        18.59       
H           81.4        2.71        19.48       
H           82.15036    3.24034     18.02398    
H           80.52       -0.1        18.2        
H           79.78       0.71        19.53       
H           78.83212    0.26071     18.13787    
H           84.6        -1.44       9.18        
H           76.12       4.6         20.34       
S           84.38       -3.18       12.36       
C           84.31       -1.8        10.19       
C           84.81       -2.99       10.66       
C           71.63       7.52        19.87       
C           72.62       7.25        20.85       
C           71.93       7.03        18.63       
N           72.52       7.45        22.13       
N           74.73       6.35        21.58       
S           73.99       7.06        22.86       
H           73.1        5.77        17.42       
H           71.23       7.04        17.74       
C           73.1        6.39        18.35       
C           73.89       6.67        20.58       
C           74.16       6.34        19.18       
C           59.88       18.97       21.98       
C           61.19       19.01       22.43       
S           59.53       17.4        21.29       
C           65.46       14.84       21.39       
C           64.16       14.56       20.9        
C           63.84       13.36       20.34       
C           64.87       12.43       20.24       
C           66.08       12.7        20.89       
C           66.39       13.9        21.46       
C           64.98       11.16       19.28       
C           66.42       10.79       19.71       
C           67.05       11.66       20.64       
C           65.56       16.32       21.78       
C           64.07       16.71       21.75       
C           63.27       15.67       21.21       
C           67.03       9.63        19.26       
C           68.36       9.38        19.68       
C           68.88       10.23       20.68       
C           68.33       11.44       21.12       
C           63.38       17.75       22.24       
C           62.0        17.91       22.09       
C           61.25       16.96       21.39       
C           61.92       15.82       20.96       
C           63.97       9.98        19.59       
C           65.0        11.59       17.82       
C           66.12       16.35       23.21       
C           66.38       17.17       20.74       
H           67.37       14.07       21.78       
H           62.89       13.18       19.95       
H           63.9        18.51       22.8        
H           61.47       15.06       20.45       
H           66.53       8.98        18.53       
H           68.78       12.1        21.89       
H           64.08       9.25        18.84       
H           62.96       10.37       19.38       
H           64.08307    9.50651     20.56525    
H           65.59       12.53       17.63       
H           65.53       10.83       17.37       
H           64.05272    11.84772    17.34636    
H           66.62       18.03       21.35       
H           65.69       17.5        19.91       
H           67.33716    16.80841    20.36423    
H           67.25       16.13       23.18       
H           65.98       17.37       23.55       
H           65.56454    15.69734    23.88349    
H           69.0        7.56        18.58       
H           61.57       19.88       22.92       
S           70.47       9.57        21.19       
C           69.23       8.33        19.27       
C           70.34       8.28        20.04       
C           56.31       21.6        21.95       
C           57.45       21.86       22.84       
C           56.42       20.4        21.26       
N           57.57       22.86       23.78       
N           59.57       21.32       23.73       
S           59.02       22.6        24.5        
H           57.6        18.85       20.44       
H           55.61       20.03       20.65       
C           57.54       19.58       21.23       
C           58.6        20.95       22.9        
C           58.64       19.8        22.04       
C           45.37       32.44       17.17       
C           45.56       31.22       16.53       
S           45.86       32.27       18.84       
C           48.98       26.73       18.73       
C           48.58       27.65       19.71       
C           49.09       27.64       21.02       
C           49.93       26.61       21.33       
C           50.33       25.68       20.32       
C           49.83       25.67       19.01       
C           50.38       26.06       22.64       
C           51.56       25.21       22.29       
C           51.26       24.78       20.95       
C           48.27       27.01       17.43       
C           47.45       28.24       17.82       
C           47.77       28.72       19.1        
C           52.5        24.61       23.06       
C           53.33       23.76       22.38       
C           53.0        23.27       21.1        
C           52.0        23.8        20.34       
C           46.75       28.99       16.91       
C           46.3        30.27       17.29       
C           46.48       30.65       18.66       
C           47.23       29.87       19.61       
C           50.78       27.18       23.64       
C           49.32       25.11       23.3        
C           49.35       27.38       16.36       
C           47.25       25.92       16.9        
H           50.17       24.98       18.28       
H           48.79       28.36       21.78       
H           46.53       28.63       15.92       
H           47.5        30.26       20.6        
H           52.83       24.89       24.07       
H           51.85       23.54       19.29       
H           49.97       27.9        23.87       
H           51.02       26.69       24.5        
H           51.69931    27.66838    23.31681    
H           49.46       24.07       23.02       
H           49.51       25.05       24.41       
H           48.31231    25.49529    23.1444     
H           46.9        26.34       15.99       
H           46.36       25.75       17.59       
H           47.70599    24.93086    16.85791    
H           49.96       26.53       16.03       
H           48.75       27.69       15.48       
H           49.97183    28.2234     16.66019    
H           54.93       23.26       23.84       
H           45.17       31.13       15.49       
S           54.05       22.05       20.48       
C           54.52       23.08       22.86       
C           55.02       22.24       21.96       
C           43.44       36.16       15.92       
C           43.52       35.1        14.99       
C           43.98       35.93       17.14       
N           43.17       35.2        13.67       
N           44.22       33.01       14.29       
S           43.6        33.79       12.99       
H           45.09       34.74       18.46       
H           44.0        36.76       17.86       
C           44.61       34.72       17.49       
C           44.13       33.85       15.33       
C           44.7        33.65       16.63       
C           41.41       52.09       13.6        
C           42.05       51.3        12.77       
S           40.28       51.18       14.58       
C           41.53       45.25       12.56       
C           40.89       45.92       13.67       
C           40.31       45.24       14.7        
C           40.47       43.9        14.77       
C           41.2        43.18       13.75       
C           41.73       43.85       12.6        
C           40.24       43.04       15.96       
C           40.86       41.74       15.51       
C           41.41       41.81       14.21       
C           42.15       46.28       11.54       
C           41.75       47.63       12.2        
C           41.0        47.37       13.41       
C           41.15       40.65       16.28       
C           41.76       39.54       15.75       
C           42.28       39.64       14.45       
C           42.18       40.81       13.65       
C           42.15       48.96       12.03       
C           41.69       49.93       12.82       
C           40.83       49.65       13.91       
C           40.52       48.36       14.26       
C           41.09       43.64       17.13       
C           38.77       42.91       16.4        
C           43.69       46.0        11.67       
C           41.65       46.18       10.07       
H           42.19       43.33       11.83       
H           39.78       45.79       15.54       
H           42.64       49.36       11.15       
H           39.95       48.11       15.11       
H           40.76       40.7        17.3        
H           42.61       40.97       12.68       
H           40.69       44.54       17.52       
H           41.04       42.86       17.85       
H           42.12095    43.84898    16.8444     
H           38.12       42.61       15.5        
H           38.69       42.05       17.03       
H           38.35092    43.79706    16.87496    
H           42.51       45.93       9.47        
H           41.18       47.02       9.68        
H           40.80979    45.49777    9.94074     
H           44.11       45.1        11.2        
H           44.18       46.75       11.07       
H           44.07571    46.01378    12.68938    
H           41.93       38.12       17.57       
H           42.71       51.62       12.04       
S           43.0        38.14       14.04       
C           42.15       38.3        16.48       
C           42.81       37.44       15.62       
C           41.97       56.14       14.92       
C           42.83       55.6        13.93       
C           40.88       55.35       15.26       
N           43.94       56.14       13.57       
N           43.61       53.96       12.52       
S           44.65       55.22       12.41       
H           39.7        53.75       14.8        
H           40.1        55.68       15.95       
C           40.61       54.15       14.62       
C           42.65       54.3        13.37       
C           41.56       53.51       13.82       
C           43.28       69.84       24.4        
C           42.01       69.38       24.02       
S           44.52       68.88       23.58       
C           41.25       64.38       20.54       
C           42.59       64.71       20.86       
C           43.71       64.04       20.42       
C           43.47       62.93       19.66       
C           42.16       62.54       19.28       
C           41.04       63.29       19.66       
C           44.44       61.78       19.29       
C           43.63       60.99       18.38       
C           42.28       61.36       18.48       
C           40.27       65.35       21.31       
C           41.25       66.43       21.89       
C           42.55       65.99       21.6        
C           44.04       59.88       17.57       
C           43.12       59.18       16.88       
C           41.77       59.54       17.03       
C           41.36       60.59       17.88       
C           40.95       67.53       22.66       
C           42.03       68.29       23.1        
C           43.38       67.87       22.76       
C           43.59       66.71       22.01       
C           45.64       62.32       18.42       
C           44.88       60.89       20.52       
C           39.46       66.04       20.15       
C           39.32       64.76       22.38       
H           40.04       62.97       19.55       
H           44.72       64.35       20.69       
H           39.9        67.64       22.98       
H           44.54       66.39       21.67       
H           45.14       59.61       17.52       
H           40.29       60.8        17.93       
H           46.16       61.51       18.03       
H           46.39       62.86       19.03       
H           45.32509    62.98731    17.61773    
H           45.81       61.31       20.88       
H           45.22       59.87       20.16       
H           44.11067    60.82406    21.28933    
H           38.44       64.22       21.92       
H           38.87       65.56       22.87       
H           39.80757    64.21421    23.18777    
H           38.74       65.35       19.72       
H           40.17       66.36       19.39       
H           38.92197    66.94138    20.44347    
H           44.24       57.39       15.96       
H           41.07       69.84       24.37       
S           40.69       58.47       16.14       
C           43.3        57.93       16.15       
C           42.12       57.46       15.59       
C           44.76       73.48       26.3        
C           43.37       73.24       26.24       
C           45.54       72.62       25.68       
N           42.38       73.83       26.92       
N           41.5        71.87       25.77       
S           40.91       73.13       26.66       
H           45.72       70.73       24.54       
H           46.62       72.73       25.48       
C           45.05       71.47       25.0        
C           42.78       72.06       25.61       
C           43.7        71.14       25.04       
C           50.22       82.84       38.56       
C           51.09       82.04       37.89       
S           48.69       82.96       37.72       
C           49.53       78.8        32.99       
C           48.56       79.65       33.53       
C           47.38       79.92       32.83       
C           47.07       79.11       31.74       
C           48.05       78.21       31.3        
C           49.31       78.09       31.86       
C           45.82       79.06       30.94       
C           46.07       77.94       29.97       
C           47.4        77.39       30.26       
C           50.88       78.97       33.73       
C           50.37       79.85       34.86       
C           49.03       80.31       34.67       
C           45.21       77.48       29.06       
C           45.61       76.29       28.35       
C           46.87       75.76       28.64       
C           47.8        76.29       29.55       
C           51.03       80.33       35.96       
C           50.49       81.38       36.77       
C           49.15       81.82       36.5        
C           48.38       81.2        35.58       
C           44.64       78.75       31.85       
C           45.56       80.41       30.17       
C           51.35       77.57       34.3        
C           52.02       79.77       32.94       
H           50.06       77.35       31.54       
H           46.65       80.7        33.18       
H           52.08       80.03       36.17       
H           47.38       81.45       35.36       
H           44.28       77.94       28.86       
H           48.72       75.77       29.75       
H           43.84       79.18       31.4        
H           44.66       79.41       32.68       
H           44.5693     77.70361    32.14695    
H           45.67       81.22       30.95       
H           44.57       80.42       29.83       
H           46.30729    80.67689    29.42271    
H           52.92       79.69       33.53       
H           51.68       80.76       32.83       
H           52.26908    79.36707    31.95832    
H           51.79       76.94       33.5        
H           52.23       77.69       34.99       
H           50.59643    77.08406    34.91976    
H           43.89       76.07       26.97       
H           51.99       81.61       38.28       
S           47.02       74.33       27.63       
C           44.84       75.71       27.35       
C           45.4        74.56       26.97       
C           50.25       84.44       42.68       
C           51.51       83.84       42.09       
C           49.18       84.54       41.78       
N           52.73       83.84       42.61       
N           52.68       82.93       40.24       
S           53.71       83.15       41.48       
H           48.39       84.41       39.82       
H           48.32       85.08       42.08       
C           49.28       84.12       40.42       
C           51.51       83.4        40.7        
C           50.36       83.46       39.84       
C           44.21       88.72       57.64       
C           44.01       89.31       56.43       
S           45.67       87.66       57.57       
C           46.76       87.71       51.26       
C           47.34       87.09       52.35       
C           48.43       86.33       52.16       
C           48.92       86.08       50.9        
C           48.29       86.66       49.78       
C           47.2        87.51       49.97       
C           50.03       85.19       50.37       
C           49.91       85.39       48.87       
C           48.78       86.18       48.54       
C           45.59       88.55       51.66       
C           45.7        88.48       53.18       
C           46.66       87.53       53.58       
C           50.49       84.75       47.82       
C           50.04       84.92       46.5        
C           49.08       85.87       46.2        
C           48.37       86.47       47.2        
C           44.8        89.08       54.0        
C           44.88       88.76       55.37       
C           45.91       87.87       55.83       
C           46.81       87.15       54.92       
C           51.37       85.85       50.88       
C           49.98       83.68       50.8        
C           45.69       90.04       51.14       
C           44.21       87.99       51.24       
H           46.78       87.98       49.1        
H           48.99       85.97       52.95       
H           44.0        89.72       53.63       
H           47.44       86.26       55.25       
H           51.42       84.21       47.96       
H           47.55       87.16       46.98       
H           52.29       85.21       50.87       
H           51.26       85.92       51.94       
H           51.59127    86.81806    50.43055    
H           50.25       83.61       51.91       
H           50.86       83.09       50.43       
H           49.05919    83.14876    50.55917    
H           43.75       88.46       50.34       
H           43.46       88.04       51.91       
H           44.18177    86.91716    51.04943    
H           45.77       90.0        50.07       
H           44.79       90.62       51.36       
H           46.6448     90.51028    51.37514    
H           51.35       83.62       45.27       
H           43.22       90.05       56.24       
S           48.88       86.14       44.48       
C           50.63       84.38       45.25       
C           50.03       84.85       44.12       
C           41.93       88.99       61.38       
C           41.66       89.88       60.29       
C           42.98       88.15       61.19       
N           40.69       90.85       60.19       
N           42.36       90.94       58.35       
S           41.04       91.72       58.85       
H           44.42       87.32       59.89       
H           43.2        87.36       61.92       
C           43.69       88.05       59.96       
C           42.55       89.87       59.15       
C           43.51       88.91       58.9        
C           30.86       82.25       70.66       
C           32.13       81.93       71.01       
S           30.75       83.86       69.92       
C           36.83       85.47       69.05       
C           35.55       86.03       68.92       
C           35.3        87.21       68.23       
C           36.36       87.73       67.47       
C           37.62       87.13       67.49       
C           37.87       85.97       68.3        
C           36.34       88.87       66.46       
C           37.7        88.67       65.8        
C           38.46       87.75       66.47       
C           36.82       84.19       69.83       
C           35.36       83.97       70.13       
C           34.6        85.09       69.51       
C           38.14       89.32       64.67       
C           39.33       88.86       64.07       
C           40.14       87.95       64.8        
C           39.73       87.38       66.0        
C           34.58       82.94       70.73       
C           33.12       82.9        70.59       
C           32.52       83.97       69.93       
C           33.25       85.07       69.37       
C           35.16       88.53       65.5        
C           36.21       90.32       67.05       
C           37.36       83.09       68.97       
C           37.51       84.24       71.24       
H           38.82       85.41       68.25       
H           34.32       87.72       68.18       
H           35.11       82.17       71.21       
H           32.73       85.9        68.92       
H           37.52       90.1        64.17       
H           40.38       86.6        66.56       
H           34.18       88.71       66.03       
H           35.17       89.17       64.59       
H           35.27079    87.51215    65.1261     
H           37.28       90.64       67.43       
H           36.07       91.0        66.24       
H           35.46268    90.4914     67.82475    
H           38.04       83.25       71.44       
H           36.61       84.28       71.92       
H           38.18914    85.05641    71.48565    
H           37.59       82.12       69.52       
H           38.41       83.33       68.54       
H           36.80969    82.95595    68.03871    
H           39.41       89.95       62.08       
H           32.36       81.05       71.58       
S           41.6        87.71       63.89       
C           39.86       89.23       62.81       
C           41.12       88.77       62.6        
C           26.96       80.17       70.99       
C           28.2        79.48       71.13       
C           27.15       81.5        70.74       
N           28.26       78.14       71.38       
N           30.45       79.32       71.13       
S           29.85       77.82       71.41       
H           28.45       83.2        70.44       
H           26.29       82.13       70.51       
C           28.42       82.15       70.61       
C           29.47       80.11       70.94       
C           29.66       81.52       70.66       
C           12.65       74.81       64.94       
C           13.08       76.11       64.95       
S           13.43       73.94       66.25       
C           18.16       77.89       67.63       
C           17.72       76.66       68.19       
C           18.58       75.92       68.98       
C           19.79       76.47       69.48       
C           20.13       77.77       68.97       
C           19.36       78.47       68.06       
C           20.79       75.96       70.47       
C           21.83       77.03       70.34       
C           21.4        78.16       69.6        
C           17.28       78.29       66.42       
C           16.05       77.57       66.81       
C           16.37       76.48       67.67       
C           23.07       77.08       70.88       
C           23.84       78.21       70.76       
C           23.29       79.33       70.13       
C           22.07       79.36       69.53       
C           14.9        77.6        66.0        
C           14.13       76.44       65.85       
C           14.48       75.33       66.64       
C           15.53       75.34       67.63       
C           20.22       75.69       71.9        
C           21.38       74.63       70.0        
C           16.99       79.83       66.3        
C           17.86       77.87       65.01       
H           19.67       79.44       67.7        
H           18.26       75.0        69.32       
H           14.7        78.45       65.33       
H           15.71       74.48       68.17       
H           23.53       76.16       71.36       
H           21.64       80.2        69.01       
H           20.72       74.89       72.35       
H           19.24       75.15       71.73       
H           20.14231    76.58695    72.51445    
H           20.6        74.13       69.55       
H           21.99       74.17       70.79       
H           22.00693    74.62303    69.10837    
H           18.0        78.75       64.43       
H           17.03       77.22       64.59       
H           18.83676    77.38891    65.06102    
H           17.92       80.34       66.06       
H           16.28       80.05       65.49       
H           16.53882    80.15624    67.23707    
H           25.72       77.66       71.81       
H           12.68       76.81       64.21       
S           24.49       80.58       70.1        
C           25.14       78.4        71.27       
C           25.63       79.6        70.95       
C           10.19       72.56       62.01       
C           10.45       73.97       61.87       
C           10.7        72.09       63.2        
N           10.13       74.75       60.84       
N           11.35       76.01       62.48       
S           10.75       76.27       61.01       
H           11.67       72.4        65.1        
H           10.53       71.0        63.47       
C           11.38       72.89       64.19       
C           11.22       74.74       62.84       
C           11.7        74.17       64.03       
C           4.54        62.56       50.21       
C           3.98        63.75       50.44       
S           5.82        62.18       51.33       
C           6.19        67.54       54.46       
C           6.68        66.2        54.5        
C           7.55        65.76       55.58       
C           7.89        66.68       56.56       
C           7.35        68.05       56.52       
C           6.56        68.53       55.48       
C           8.56        66.45       57.89       
C           8.5         67.83       58.54       
C           7.87        68.76       57.66       
C           4.98        67.62       53.62       
C           5.03        66.3        52.9        
C           6.14        65.51       53.37       
C           8.95        68.32       59.74       
C           8.85        69.66       60.04       
C           8.31        70.53       59.1        
C           7.8         70.11       57.93       
C           4.3         65.8        51.88       
C           4.69        64.55       51.36       
C           5.76        63.81       51.82       
C           6.54        64.28       52.86       
C           7.69        65.33       58.6        
C           10.1        65.91       57.88       
C           3.77        67.72       54.67       
C           5.04        68.79       52.59       
H           6.14        69.56       55.44       
H           7.87        64.7        55.53       
H           3.44        66.32       51.42       
H           7.36        63.71       53.28       
H           9.42        67.71       60.52       
H           7.44        70.8        57.19       
H           7.84        64.38       58.05       
H           6.6         65.5        58.71       
H           7.92113     65.05684    59.62959    
H           10.19       64.91       57.38       
H           10.51       65.82       58.9        
H           10.71581    66.64613    57.36329    
H           4.4         68.55       51.7        
H           6.09        68.69       52.24       
H           4.88638     69.83045    52.8763     
H           3.84        68.75       55.07       
H           3.96        67.12       55.58       
H           2.80766     67.5894     54.17508    
H           9.97        69.75       61.9        
H           3.09        64.04       49.98       
S           8.69        72.18       59.6        
C           9.43        70.33       61.15       
C           9.45        71.64       61.11       
C           3.61        59.44       47.07       
C           2.59        60.27       47.68       
C           4.85        59.78       47.66       
N           1.36        60.28       47.29       
N           1.74        62.0        49.0        
S           0.48        61.26       48.27       
H           6.09        60.76       49.0        
H           5.71        59.3        47.23       
C           5.11        60.72       48.69       
C           2.87        61.31       48.68       
C           4.14        61.49       49.32       
H           85.13       -3.86       10.01       
H           3.5         59.03       46.04       
