612

C           18.83       6.35        12.15       
C           20.04       5.81        12.62       
S           17.65       5.04        11.9        
C           21.13       -0.22       12.67       
C           19.85       0.24        12.34       
C           18.88       -0.7        11.79       
C           19.28       -2.03       11.56       
C           20.57       -2.43       11.92       
C           21.48       -1.57       12.55       
C           18.52       -3.13       10.81       
C           19.45       -4.26       11.0        
C           20.66       -3.85       11.65       
C           21.97       1.0         13.08       
C           20.92       2.15        12.94       
C           19.72       1.65        12.49       
C           19.31       -5.61       10.61       
C           20.33       -6.52       11.01       
C           21.44       -6.04       11.69       
C           21.63       -4.73       12.05       
C           21.01       3.47        13.22       
C           20.02       4.39        12.74       
C           18.84       3.79        12.27       
C           18.63       2.43        12.21       
C           17.14       -3.43       11.36       
C           18.45       -2.8        9.27        
C           22.5        0.89        14.54       
C           23.11       1.15        12.04       
H           22.51       -1.87       12.72       
H           17.94       -0.32       11.38       
H           21.95       3.9         13.56       
H           17.69       2.04        11.89       
H           18.34       -5.93       10.27       
H           22.57       -4.5        12.59       
H           16.49       -3.84       10.64       
H           16.73       -2.4        11.42       
H           17.16858    -3.923      12.33172    
H           17.5        -2.34       8.93        
H           18.65       -3.81       8.8         
H           19.16873    -2.06013    8.91768     
H           23.56       0.21        11.91       
H           23.86       1.79        12.51       
H           22.76022    1.52955     11.07995    
H           23.13       0.03        14.51       
H           23.03       1.8         14.72       
H           21.75793    0.50469     15.23926    
H           19.32       -8.5        10.65       
H           21.01       6.37        12.66       
S           22.48       -7.38       12.14       
C           20.22       -7.94       10.95       
C           21.42       -8.54       11.39       
C           18.42       10.71       11.3        
C           17.26       9.86        11.08       
C           19.52       10.12       11.75       
N           16.06       10.19       10.61       
N           16.23       7.72        10.96       
S           15.09       8.84        10.52       
H           20.48       8.43        12.66       
H           20.41       10.69       12.01       
C           19.63       8.74        12.06       
C           17.36       8.38        11.27       
C           18.59       7.82        11.82       
C           16.2        26.93       11.39       
C           15.27       25.94       11.26       
S           17.87       26.26       11.34       
C           16.8        20.15       10.0        
C           17.91       20.96       10.27       
C           19.21       20.33       10.29       
C           19.34       18.97       10.19       
C           18.27       18.2        9.85        
C           17.03       18.82       9.72        
C           20.54       18.02       10.45       
C           19.87       16.61       10.37       
C           18.55       16.78       10.01       
C           15.5        20.92       10.16       
C           15.98       22.34       10.45       
C           17.39       22.36       10.56       
C           20.34       15.44       10.73       
C           19.44       14.33       10.71       
C           18.07       14.53       10.36       
C           17.64       15.75       9.92        
C           15.19       23.4        10.8        
C           15.82       24.61       11.05       
C           17.23       24.67       11.11       
C           17.99       23.53       10.87       
C           21.63       18.16       9.33        
C           21.06       18.3        11.85       
C           14.72       20.94       8.85        
C           14.58       20.45       11.36       
H           16.15       18.2        9.58        
H           20.13       20.91       10.58       
H           14.1        23.3        10.95       
H           19.11       23.63       11.07       
H           21.43       15.22       10.97       
H           16.68       15.91       9.52        
H           22.5        17.51       9.58        
H           22.01       19.15       9.28        
H           21.24246    17.93452    8.33649     
H           21.38       19.36       11.77       
H           21.97       17.76       12.1        
H           20.28322    18.24299    12.61253    
H           13.94       19.65       11.0        
H           13.79       21.27       11.58       
H           15.12658    20.13057    12.24731    
H           14.55       19.9        8.53        
H           13.77       21.44       9.01        
H           15.25954    21.52989    8.10904     
H           20.58       12.69       11.41       
H           14.16       26.13       11.25       
S           17.04       13.09       10.41       
C           19.58       12.98       11.08       
C           18.44       12.19       10.96       
C           15.31       31.22       11.11       
C           16.31       30.77       11.93       
C           14.76       30.24       10.32       
N           17.09       31.51       12.76       
N           17.59       29.1        12.91       
S           18.14       30.46       13.59       
H           14.52       28.19       9.72        
H           14.02       30.44       9.54        
C           15.04       28.87       10.37       
C           16.63       29.34       12.0        
C           15.92       28.35       11.23       
C           15.02       47.72       10.4        
C           15.32       46.89       11.42       
S           14.4        46.8        9.02        
C           14.13       40.96       11.58       
C           13.97       41.45       10.32       
C           13.74       40.66       9.21        
C           13.57       39.34       9.4         
C           13.71       38.77       10.68       
C           13.93       39.61       11.81       
C           13.39       38.15       8.41        
C           13.48       36.95       9.39        
C           13.86       37.3        10.66       
C           14.59       41.95       12.62       
C           14.64       43.22       11.79       
C           14.21       42.94       10.49       
C           13.54       35.64       9.15        
C           14.09       34.67       10.08       
C           14.39       35.14       11.41       
C           14.35       36.49       11.72       
C           14.87       44.48       12.26       
C           14.81       45.55       11.28       
C           14.35       45.28       9.97        
C           14.03       43.99       9.54        
C           12.08       38.06       7.64        
C           14.65       37.94       7.53        
C           13.52       42.03       13.77       
C           15.99       41.5        13.07       
H           14.01       39.18       12.78       
H           13.52       41.06       8.27        
H           15.19       44.68       13.28       
H           13.62       43.77       8.56        
H           13.29       35.26       8.16        
H           14.72       36.8        12.65       
H           12.01       38.61       6.75        
H           11.91       37.06       7.28        
H           11.24819    38.23927    8.32122     
H           15.5        37.61       8.17        
H           14.48       37.11       6.8         
H           14.98946    38.79212    6.94114     
H           16.01       40.53       13.57       
H           16.4        42.17       13.8        
H           16.66572    41.35468    12.22716    
H           13.34       41.04       14.25       
H           13.82       42.61       14.66       
H           12.59309    42.48621    13.42241    
H           14.33       32.71       8.96        
H           15.76       47.22       12.34       
S           14.78       33.71       12.36       
C           14.33       33.26       9.88        
C           14.9        32.65       10.96       
C           17.04       51.69       9.9         
C           15.75       51.45       9.24        
C           17.35       50.71       10.75       
N           15.33       52.27       8.31        
N           14.07       50.15       8.46        
S           13.88       51.65       7.86        
H           17.03       48.82       11.54       
H           18.14       50.81       11.43       
C           16.6        49.49       10.87       
C           15.07       50.16       9.31        
C           15.49       49.1        10.18       
C           26.82       64.76       13.87       
C           25.44       64.88       14.0        
S           27.25       63.28       13.12       
C           21.69       60.42       11.97       
C           23.06       60.1        11.93       
C           23.44       58.86       11.43       
C           22.52       57.89       11.05       
C           21.15       58.17       11.18       
C           20.72       59.45       11.66       
C           22.81       56.43       10.67       
C           21.38       55.97       10.48       
C           20.4        56.96       10.73       
C           21.4        61.73       12.67       
C           22.82       62.27       12.9        
C           23.77       61.28       12.43       
C           21.17       54.63       10.18       
C           19.78       54.25       10.09       
C           18.76       55.24       10.26       
C           19.08       56.53       10.68       
C           23.35       63.45       13.4        
C           24.75       63.68       13.47       
C           25.59       62.74       13.0        
C           25.15       61.54       12.52       
C           23.77       56.4        9.42        
C           23.4        55.5        11.78       
C           20.54       62.64       11.72       
C           20.53       61.51       13.96       
H           19.68       59.79       11.65       
H           24.45       58.6        11.23       
H           22.65       64.17       13.82       
H           25.79       60.83       12.05       
H           21.96       53.92       10.01       
H           18.35       57.25       11.01       
H           24.51       55.68       9.37        
H           24.38       57.3        9.36        
H           23.24865    56.42143    8.46301     
H           24.43       55.82       11.9        
H           23.51       54.47       11.62       
H           22.91202    55.66023    12.7414     
H           19.51       61.28       13.71       
H           20.78       60.62       14.52       
H           20.55212    62.27689    14.73427    
H           19.61       62.98       12.21       
H           20.1        62.06       10.86       
H           21.06065    63.49798    11.29468    
H           19.89       52.15       9.73        
H           24.94       65.82       14.27       
S           17.16       54.49       9.99        
C           19.19       52.99       9.85        
C           17.89       52.94       9.71        
C           30.23       67.66       14.22       
C           28.94       68.02       14.8        
C           30.32       66.39       13.67       
N           28.58       69.16       15.37       
N           26.73       67.56       15.37       
S           27.03       69.13       15.87       
H           29.33       64.61       12.97       
H           31.19       66.06       13.16       
C           29.17       65.47       13.6        
C           27.83       67.04       14.78       
C           27.9        65.74       14.09       
C           38.45       78.3        5.59        
C           37.41       78.65       6.42        
S           39.41       77.02       6.31        
C           35.52       74.98       10.86       
C           36.64       74.56       10.24       
C           37.2        73.3        10.5        
C           36.49       72.45       11.4        
C           35.23       72.88       11.9        
C           34.84       74.18       11.79       
C           36.53       70.93       11.62       
C           35.21       70.59       12.3        
C           34.52       71.84       12.51       
C           35.07       76.35       10.39       
C           36.14       76.63       9.28        
C           37.12       75.58       9.27        
C           34.69       69.44       12.81       
C           33.42       69.49       13.42       
C           32.72       70.74       13.43       
C           33.25       71.96       13.01       
C           36.16       77.71       8.4         
C           37.23       77.72       7.54        
C           38.28       76.84       7.59        
C           38.25       75.72       8.49        
C           36.67       70.13       10.28       
C           37.82       70.61       12.55       
C           33.56       76.29       9.91        
C           35.17       77.33       11.58       
H           34.01       74.59       12.36       
H           38.12       72.94       10.02       
H           35.44       78.47       8.36        
H           38.96       74.95       8.41        
H           35.29       68.56       12.77       
H           32.74       72.92       13.03       
H           37.37       70.65       9.59        
H           37.03       69.14       10.27       
H           35.75055    70.06535    9.69816     
H           37.51       70.97       13.54       
H           37.85       69.52       12.76       
H           38.7849     70.99596    12.22122    
H           34.44       76.95       12.24       
H           34.76       78.24       11.3        
H           36.19432    77.48475    11.91899    
H           33.03       76.05       10.82       
H           33.24       77.29       9.71        
H           33.42822    75.52858    9.14126     
H           32.98       67.37       13.86       
H           36.68       79.38       6.14        
S           31.09       70.41       14.02       
C           32.6        68.38       13.82       
C           31.31       68.62       14.14       
C           39.75       79.95       1.7         
C           38.53       80.33       2.34        
C           40.46       79.05       2.48        
N           37.73       81.25       1.8         
N           36.92       80.26       3.93        
S           36.48       81.44       2.86        
H           40.69       77.71       4.19        
H           41.5        78.72       2.09        
C           40.03       78.5        3.71        
C           38.08       79.71       3.57        
C           38.84       78.8        4.29        
C           46.92       81.74       -13.11      
C           47.67       81.97       -11.93      
S           45.21       81.76       -12.82      
C           44.92       81.75       -6.44       
C           44.03       81.92       -7.5        
C           42.67       82.11       -7.42       
C           42.16       82.08       -6.09       
C           43.0        81.79       -5.01       
C           44.39       81.67       -5.16       
C           40.7        82.13       -5.65       
C           40.83       81.72       -4.15       
C           42.24       81.47       -3.86       
C           46.37       81.73       -6.84       
C           46.23       81.95       -8.38       
C           44.83       81.84       -8.76       
C           39.87       81.39       -3.21       
C           40.31       81.02       -1.88       
C           41.72       80.86       -1.63       
C           42.67       81.02       -2.59       
C           47.2        81.93       -9.36       
C           46.83       81.9        -10.75      
C           45.44       81.81       -11.06      
C           44.47       81.91       -10.11      
C           40.13       83.55       -5.76       
C           39.84       81.0        -6.25       
C           47.1        82.89       -6.08       
C           47.01       80.33       -6.5        
H           44.98       81.4        -4.3        
H           42.01       82.33       -8.19       
H           48.25       81.95       -9.12       
H           43.39       82.03       -10.46      
H           38.82       81.51       -3.48       
H           43.71       80.92       -2.37       
H           40.08       83.77       -6.85       
H           39.06       83.36       -5.44       
H           40.68804    84.27974    -5.17334    
H           40.22       79.98       -5.96       
H           38.9        81.0        -5.88       
H           39.75558    81.08442    -7.33344    
H           47.53       80.33       -5.5        
H           47.71       80.1        -7.26       
H           46.28021    79.52151    -6.45707    
H           47.01       82.8        -5.03       
H           46.48       83.76       -6.29       
H           48.06107    83.21992    -6.47447    
H           38.39       80.71       -0.66       
H           48.68       82.07       -11.96      
S           41.94       80.44       0.09        
C           39.48       80.63       -0.76       
C           40.22       80.27       0.34        
C           48.17       80.75       -17.31      
C           49.01       81.57       -16.5       
C           46.92       80.55       -16.77      
N           50.26       82.03       -16.8       
N           49.62       82.49       -14.38      
S           50.79       82.87       -15.43      
H           45.55       80.61       -15.16      
H           46.13       80.18       -17.43      
C           46.52       80.91       -15.44      
C           48.66       81.92       -15.08      
C           47.32       81.54       -14.52      
C           51.02       72.96       -31.68      
C           50.07       72.54       -30.76      
S           51.79       74.43       -31.15      
C           49.06       75.2        -25.4       
C           49.87       75.89       -26.3       
C           50.4        77.19       -26.01      
C           50.06       77.8        -24.82      
C           49.09       77.12       -24.01      
C           48.6        75.83       -24.3       
C           50.31       79.21       -24.37      
C           49.63       79.17       -23.02      
C           48.93       77.93       -22.83      
C           48.84       73.76       -25.91      
C           49.29       73.9        -27.33      
C           50.1        75.07       -27.43      
C           49.66       80.14       -22.08      
C           48.98       79.9        -20.85      
C           48.26       78.71       -20.64      
C           48.21       77.73       -21.67      
C           49.28       73.02       -28.43      
C           50.04       73.28       -29.57      
C           50.86       74.4        -29.65      
C           50.89       75.36       -28.55      
C           51.8        79.5        -24.31      
C           49.58       80.26       -25.15      
C           49.53       72.81       -24.96      
C           47.23       73.51       -25.78      
H           47.93       75.29       -23.67      
H           51.09       77.74       -26.64      
H           48.54       72.14       -28.36      
H           51.57       76.22       -28.54      
H           50.14       81.09       -22.27      
H           47.67       76.82       -21.51      
H           52.27       79.56       -25.3       
H           51.91       80.48       -23.87      
H           52.38268    78.76472    -23.75507   
H           48.51       79.99       -25.12      
H           49.79       81.18       -24.67      
H           49.80445    80.38626    -26.20914   
H           47.02       73.52       -24.74      
H           46.78       74.39       -26.23      
H           46.82944    72.63157    -26.28598   
H           49.02       72.5        -24.02      
H           50.4        73.41       -24.66      
H           49.97292    71.95228    -25.4662    
H           49.51       81.74       -19.76      
H           49.55       71.58       -30.82      
S           47.6        78.7        -18.98      
C           48.94       80.78       -19.71      
C           48.29       80.27       -18.63      
C           52.18       71.23       -35.54      
C           50.79       71.45       -35.2       
C           53.07       71.69       -34.55      
N           49.8        71.13       -36.03      
N           49.05       72.11       -33.88      
S           48.36       71.55       -35.26      
H           53.4        72.58       -32.63      
H           54.12       71.78       -34.75      
C           52.63       72.21       -33.32      
C           50.38       72.04       -33.95      
C           51.33       72.42       -32.97      
C           59.29       68.24       -50.21      
C           58.12       68.95       -50.02      
S           59.52       67.05       -48.97      
C           55.22       69.41       -44.87      
C           56.15       68.32       -44.8       
C           56.56       67.79       -43.58      
C           55.85       68.25       -42.5       
C           54.82       69.17       -42.52      
C           54.45       69.76       -43.74      
C           56.22       67.96       -41.02      
C           55.04       68.59       -40.23      
C           54.36       69.47       -41.15      
C           54.96       69.87       -46.28      
C           56.15       69.14       -46.95      
C           56.76       68.16       -46.16      
C           54.78       68.6        -38.91      
C           53.87       69.54       -38.41      
C           53.22       70.46       -39.29      
C           53.4        70.45       -40.68      
C           56.47       69.28       -48.3       
C           57.52       68.63       -48.82      
C           58.2        67.66       -47.97      
C           57.84       67.48       -46.62      
C           56.1        66.48       -40.8       
C           57.57       68.5        -40.39      
C           53.53       69.35       -46.67      
C           55.02       71.44       -46.38      
H           53.67       70.48       -43.84      
H           57.4        67.1        -43.4       
H           56.15       70.17       -48.87      
H           58.38       66.77       -45.99      
H           55.34       68.0        -38.23      
H           52.97       71.21       -41.3       
H           56.83       65.89       -41.28      
H           56.21       66.32       -39.74      
H           55.10963    66.12178    -41.08096   
H           57.56       69.6        -40.15      
H           57.78       68.07       -39.38      
H           58.4869     68.29226    -40.94157   
H           54.27       71.94       -45.75      
H           54.94       71.62       -47.46      
H           55.97198    71.86387    -46.06036   
H           52.77       70.06       -46.41      
H           53.43       68.46       -46.1       
H           53.33542    69.02338    -47.69155   
H           53.84       69.07       -36.22      
H           57.74       69.69       -50.78      
S           52.14       71.47       -38.32      
C           53.54       69.74       -37.03      
C           52.71       70.76       -36.81      
C           61.82       67.84       -53.85      
C           60.91       68.96       -53.7       
C           61.95       67.06       -52.72      
N           60.64       69.91       -54.63      
N           59.17       70.1        -52.69      
S           59.52       70.94       -54.06      
H           61.29       66.56       -50.81      
H           62.74       66.26       -52.62      
C           61.09       67.27       -51.64      
C           60.05       69.1        -52.55      
C           60.09       68.15       -51.48      
C           73.61       66.76       -65.11      
C           72.89       67.89       -64.89      
S           72.72       65.38       -64.5       
C           68.08       68.18       -61.27      
C           68.57       66.92       -61.5       
C           68.12       65.77       -60.92      
C           67.23       65.98       -59.87      
C           66.67       67.22       -59.65      
C           67.0        68.29       -60.41      
C           66.75       65.01       -58.81      
C           65.8        65.82       -57.96      
C           65.8        67.16       -58.54      
C           68.67       69.16       -62.29      
C           69.88       68.38       -62.87      
C           69.63       67.06       -62.51      
C           65.12       65.55       -56.82      
C           64.25       66.56       -56.28      
C           64.25       67.88       -56.87      
C           64.89       68.11       -58.07      
C           70.88       68.79       -63.74      
C           71.65       67.72       -64.22      
C           71.43       66.43       -63.89      
C           70.39       66.03       -63.08      
C           66.02       63.87       -59.5       
C           68.09       64.53       -58.04      
C           67.58       69.69       -63.3       
C           69.31       70.31       -61.45      
H           66.47       69.23       -60.27      
H           68.72       64.82       -60.84      
H           70.97       69.8        -64.11      
H           70.31       64.96       -62.8       
H           65.04       64.53       -56.45      
H           64.76       69.13       -58.54      
H           66.62       63.42       -60.27      
H           65.21       64.19       -60.1       
H           65.59497    63.14333    -58.80761   
H           68.66       63.92       -58.7       
H           67.91       63.78       -57.26      
H           68.67671    65.37664    -57.68352   
H           68.5        70.87       -60.91      
H           69.73       71.02       -62.11      
H           69.98157    69.92334    -60.68346   
H           67.63       70.8        -63.43      
H           66.63       69.44       -62.87      
H           67.78702    69.36877    -64.32081   
H           63.34       65.57       -54.61      
H           73.34       68.89       -65.0       
S           63.27       69.01       -55.92      
C           63.45       66.5        -55.17      
C           62.78       67.58       -54.95      
C           77.71       66.03       -66.74      
C           77.34       67.38       -66.25      
C           76.75       65.13       -66.64      
N           78.1        68.47       -66.25      
N           75.79       68.89       -65.46      
S           77.22       69.74       -65.68      
H           74.6        64.71       -66.34      
H           76.86       64.11       -66.83      
C           75.44       65.49       -66.25      
C           76.02       67.61       -65.73      
C           75.0        66.62       -65.69      
C           92.38       58.98       -68.99      
C           91.23       58.35       -69.24      
S           92.12       60.74       -69.24      
C           85.76       61.23       -69.76      
C           86.82       62.11       -69.68      
C           86.67       63.51       -69.63      
C           85.38       64.02       -69.31      
C           84.33       63.08       -69.08      
C           84.49       61.71       -69.39      
C           85.04       65.42       -68.88      
C           83.68       65.2        -68.28      
C           83.3        63.83       -68.45      
C           86.27       59.84       -70.01      
C           87.73       59.99       -69.48      
C           88.14       61.37       -69.61      
C           82.68       66.1        -67.91      
C           81.39       65.61       -67.73      
C           81.12       64.26       -67.68      
C           82.07       63.28       -68.03      
C           88.65       58.89       -69.47      
C           90.06       59.2        -69.35      
C           90.47       60.56       -69.5       
C           89.49       61.63       -69.54      
C           85.94       66.03       -67.75      
C           84.88       66.36       -70.12      
C           85.56       58.85       -69.05      
C           86.35       59.37       -71.48      
H           83.61       61.03       -69.33      
H           87.51       64.16       -69.62      
H           88.26       57.9        -69.57      
H           89.89       62.63       -69.69      
H           82.86       67.18       -67.84      
H           81.87       62.18       -68.14      
H           86.87       66.41       -68.09      
H           85.43       66.92       -67.32      
H           86.08267    65.35233    -66.90827   
H           84.15       65.95       -70.81      
H           84.44       67.32       -69.75      
H           85.7977     66.46839    -70.69808   
H           86.73       58.34       -71.62      
H           87.01       60.09       -71.92      
H           85.35557    59.41232    -71.92432   
H           85.94       57.87       -69.28      
H           84.54       58.85       -69.41      
H           85.64667    59.08112    -67.98832   
H           80.19       67.45       -67.12      
H           91.13       57.24       -69.04      
S           79.38       63.93       -67.33      
C           80.17       66.36       -67.4       
C           79.05       65.64       -67.17      
C           96.28       57.67       -67.55      
C           95.51       56.9        -68.5       
C           95.64       58.84       -67.2       
N           95.97       55.78       -69.03      
N           93.74       56.48       -69.9       
S           94.81       55.31       -70.11      
H           93.86       60.17       -67.18      
H           96.12       59.52       -66.52      
C           94.32       59.26       -67.57      
C           94.24       57.33       -69.0       
C           93.67       58.58       -68.61      
H           21.44       -9.57       11.69       
H           97.38       57.59       -67.47      
