612

C           95.6        12.41       58.63       
C           96.15       11.17       58.66       
S           93.85       12.23       58.77       
C           92.98       5.96        58.96       
C           92.19       7.14        58.93       
C           90.87       7.24        58.94       
C           90.19       6.1         58.53       
C           90.91       4.85        58.55       
C           92.31       4.79        58.84       
C           88.71       5.99        58.1        
C           88.6        4.43        58.13       
C           89.92       3.82        58.25       
C           94.52       6.24        58.97       
C           94.47       7.77        58.81       
C           93.11       8.28        58.9        
C           87.51       3.67        57.85       
C           87.72       2.28        57.62       
C           89.0        1.76        57.72       
C           90.17       2.49        58.0        
C           95.5        8.65        58.77       
C           95.22       10.03       58.77       
C           93.89       10.49       58.84       
C           92.83       9.62        58.9        
C           87.74       6.63        59.07       
C           88.42       6.48        56.66       
C           95.23       5.81        60.28       
C           95.24       5.64        57.79       
H           92.81       3.84        58.94       
H           90.41       8.26        58.91       
H           96.54       8.37        58.75       
H           91.83       10.02       58.85       
H           86.5        4.1         57.89       
H           91.15       2.09        58.19       
H           86.8        6.74        58.52       
H           87.98       7.64        59.29       
H           87.61843    6.05077     59.98532    
H           89.17       6.07        55.97       
H           87.48       6.04        56.3        
H           88.47455    7.55728     56.50318    
H           95.47       4.61        57.93       
H           96.07       6.18        57.49       
H           94.69927    5.7437      56.84928    
H           95.2        4.77        60.44       
H           96.32       5.92        60.27       
H           94.77786    6.27673     61.15512    
H           85.77       1.51        57.08       
H           97.23       11.04       58.57       
S           88.95       0.03        57.44       
C           86.77       1.29        57.33       
C           87.23       0.05        57.12       
C           97.22       16.47       57.78       
C           98.1        15.35       57.95       
C           95.88       16.14       58.01       
N           99.4        15.41       57.76       
N           98.65       13.24       58.36       
S           100.06      13.96       58.05       
H           94.32       14.82       58.57       
H           95.13       16.91       57.83       
C           95.44       14.88       58.41       
C           97.61       14.01       58.2        
C           96.21       13.75       58.44       
C           98.54       28.0        46.19       
C           99.34       26.87       46.09       
S           97.94       28.29       47.78       
C           99.47       22.98       50.78       
C           98.68       24.13       51.03       
C           97.86       24.32       52.18       
C           97.83       23.42       53.22       
C           98.64       22.29       53.02       
C           99.44       22.03       51.81       
C           97.1        23.39       54.62       
C           97.55       21.95       55.03       
C           98.41       21.34       54.04       
C           100.15      23.01       49.38       
C           99.59       24.32       48.92       
C           98.73       24.96       49.85       
C           97.08       21.27       56.11       
C           97.44       19.9        56.3        
C           98.3        19.34       55.36       
C           98.74       19.98       54.2        
C           99.88       24.98       47.73       
C           99.3        26.19       47.36       
C           98.5        26.76       48.34       
C           98.27       26.21       49.6        
C           97.78       24.45       55.49       
C           95.55       23.31       54.68       
C           101.66      23.01       49.45       
C           99.72       21.9        48.4        
H           100.06      21.09       51.76       
H           97.16       25.21       52.29       
H           100.5       24.43       46.94       
H           97.75       26.66       50.44       
H           96.44       21.72       56.85       
H           99.31       19.44       53.49       
H           97.55       25.43       55.18       
H           97.66       24.1        56.54       
H           98.86049    24.4796     55.34939    
H           95.28       22.43       54.06       
H           95.11       23.19       55.64       
H           95.08663    24.21535    54.28792    
H           100.44      21.9        47.56       
H           98.69       22.17       48.06       
H           99.59074    20.93052    48.88115    
H           102.02      22.08       49.82       
H           102.14      23.25       48.46       
H           102.04208   23.71755    50.18586    
H           96.13       19.2        57.88       
H           99.87       26.55       45.16       
S           98.63       17.64       55.71       
C           96.99       18.94       57.23       
C           97.65       17.75       57.18       
C           97.52       31.18       43.24       
C           98.56       30.23       42.96       
C           96.85       30.96       44.37       
N           99.33       30.15       41.86       
N           99.75       28.27       43.35       
S           100.21      28.75       41.84       
H           96.5        29.72       46.11       
H           96.07       31.64       44.72       
C           97.15       29.79       45.24       
C           98.85       29.12       43.82       
C           98.23       28.97       45.12       
C           94.82       46.37       37.49       
C           93.82       45.62       38.13       
S           96.29       45.46       37.36       
C           94.4        39.71       39.59       
C           95.51       40.33       38.95       
C           96.73       39.64       38.77       
C           96.78       38.26       39.14       
C           95.59       37.64       39.62       
C           94.39       38.31       39.85       
C           97.9        37.29       38.86       
C           97.31       36.06       39.58       
C           95.99       36.29       39.97       
C           93.35       40.78       39.77       
C           93.95       41.99       39.05       
C           95.3        41.77       38.77       
C           97.97       34.85       39.83       
C           97.32       33.93       40.71       
C           95.96       34.2        41.11       
C           95.27       35.33       40.68       
C           93.36       43.21       38.92       
C           94.21       44.25       38.41       
C           95.62       44.06       38.12       
C           96.17       42.78       38.18       
C           97.91       37.1        37.32       
C           99.21       37.76       39.57       
C           92.0        40.4        39.2        
C           93.23       41.14       41.27       
H           93.53       37.81       40.33       
H           97.65       40.02       38.36       
H           92.35       43.42       39.29       
H           97.17       42.53       37.86       
H           98.99       34.68       39.4        
H           94.29       35.61       41.05       
H           98.39       38.0        36.86       
H           96.86       37.1        36.98       
H           98.43565    36.20711    36.98157    
H           99.65       38.49       38.88       
H           99.98       36.93       39.63       
H           99.06143    38.228      40.54314    
H           92.43       40.66       41.81       
H           93.14       42.23       41.36       
H           94.17614    40.97303    41.78481    
H           91.64       39.48       39.71       
H           91.2        41.15       39.28       
H           91.98629    40.27663    38.11709    
H           98.9        32.42       41.06       
H           92.83       46.02       38.23       
S           95.58       33.06       42.36       
C           97.89       32.75       41.32       
C           97.11       32.21       42.29       
C           95.04       49.92       34.78       
C           93.8        49.58       35.45       
C           96.13       49.24       35.27       
N           92.6        50.09       35.14       
N           92.42       48.24       36.75       
S           91.43       49.37       36.05       
H           96.92       47.67       36.3        
H           97.2        49.42       34.9        
C           95.99       48.14       36.12       
C           93.7        48.41       36.31       
C           94.83       47.63       36.68       
C           98.29       60.98       23.05       
C           99.16       59.92       23.26       
S           96.75       60.67       23.77       
C           97.63       55.5        27.1        
C           96.5        56.34       26.76       
C           95.3        56.28       27.44       
C           95.14       55.36       28.47       
C           96.23       54.6        28.91       
C           97.45       54.59       28.13       
C           93.96       55.16       29.45       
C           94.63       54.22       30.47       
C           95.92       53.84       30.08       
C           98.87       55.85       26.31       
C           98.3        56.97       25.44       
C           96.96       57.29       25.75       
C           94.02       53.64       31.6        
C           94.72       52.68       32.32       
C           96.07       52.36       31.93       
C           96.7        53.0        30.86       
C           99.12       57.74       24.62       
C           98.6        58.93       24.11       
C           97.3        59.2        24.41       
C           96.47       58.5        25.33       
C           93.51       56.49       30.2        
C           92.78       54.41       28.84       
C           100.0       56.34       27.26       
C           99.3        54.7        25.33       
H           98.32       54.01       28.44       
H           94.44       56.84       27.19       
H           100.13      57.51       24.44       
H           95.43       58.83       25.52       
H           92.93       53.84       31.81       
H           97.67       52.69       30.58       
H           92.51       56.38       30.74       
H           93.3        57.27       29.49       
H           94.26246    56.88349    30.88343    
H           93.03       53.39       28.62       
H           92.03       54.24       29.62       
H           92.23448    54.92681    28.05043    
H           100.17      54.97       24.74       
H           98.49       54.45       24.74       
H           99.67843    53.8267     25.86126    
H           100.66      55.58       27.71       
H           100.76      56.85       26.71       
H           99.65743    57.0177     28.04196    
H           93.1        51.83       33.57       
H           100.15      59.85       22.83       
S           96.68       51.04       32.91       
C           94.2        51.76       33.28       
C           95.2        50.98       33.82       
C           98.48       65.03       21.02       
C           99.28       63.92       20.51       
C           97.72       64.67       22.07       
N           100.14      63.98       19.55       
N           100.17      61.77       20.67       
S           100.87      62.54       19.39       
H           96.99       63.19       23.5        
H           97.11       65.43       22.52       
C           97.61       63.35       22.65       
C           99.24       62.57       21.17       
C           98.35       62.24       22.28       
C           101.8       81.05       18.15       
C           102.53      80.03       17.74       
S           100.38      80.43       19.0        
C           100.92      74.14       17.83       
C           99.9        75.03       18.38       
C           98.72       74.56       18.97       
C           98.59       73.2        19.19       
C           99.63       72.36       18.71       
C           100.77      72.77       17.98       
C           97.69       72.6        20.19       
C           98.1        71.12       20.04       
C           99.22       71.01       19.13       
C           102.2       74.89       17.51       
C           101.76      76.3        17.7        
C           100.46      76.41       18.22       
C           97.42       70.01       20.52       
C           98.02       68.76       20.28       
C           99.17       68.66       19.51       
C           99.75       69.74       18.83       
C           102.58      77.43       17.64       
C           102.05      78.69       17.94       
C           100.79      78.75       18.56       
C           99.94       77.66       18.73       
C           97.87       73.2        21.55       
C           96.24       72.78       19.74       
C           103.39      74.51       18.43       
C           102.61      74.77       16.05       
H           101.44      72.05       17.55       
H           97.98       75.26       19.31       
H           103.48      77.38       17.04       
H           98.99       77.73       19.24       
H           96.48       70.09       21.04       
H           100.72      69.58       18.31       
H           97.15       73.91       21.93       
H           98.86       73.65       21.56       
H           97.89076    72.49419    22.38036    
H           95.95       73.83       19.95       
H           95.56       72.16       20.31       
H           96.14847    72.52652    18.68384    
H           103.32      73.99       15.94       
H           103.19      75.63       15.78       
H           101.80117   74.72667    15.32061    
H           103.52      73.41       18.29       
H           104.32      75.01       18.15       
H           103.19154   74.72973    19.47902    
H           96.84       67.4        21.47       
H           103.42      80.17       17.12       
S           99.78       67.08       19.52       
C           97.64       67.47       20.84       
C           98.5        66.45       20.54       
C           101.09      85.13       16.78       
C           101.86      84.2        15.99       
C           100.65      84.61       17.95       
N           102.4       84.48       14.84       
N           102.94      82.2        15.59       
S           103.24      83.21       14.35       
H           100.47      82.97       19.3        
H           99.99       85.26       18.57       
C           100.95      83.26       18.4        
C           102.23      82.91       16.5        
C           101.8       82.42       17.73       
C           92.34       98.6        16.92       
C           93.54       98.73       17.55       
S           92.4        97.63       15.46       
C           97.85       94.5        16.66       
C           96.98       94.66       15.52       
C           96.85       93.61       14.51       
C           97.7        92.5        14.66       
C           98.54       92.34       15.78       
C           98.7        93.41       16.73       
C           97.59       91.21       13.81       
C           98.54       90.33       14.6        
C           99.07       90.97       15.75       
C           97.61       95.6        17.66       
C           96.48       96.47       17.02       
C           96.04       95.78       15.82       
C           99.0        89.09       14.35       
C           99.71       88.35       15.29       
C           99.98       88.95       16.55       
C           99.74       90.28       16.76       
C           95.79       97.57       17.56       
C           94.55       97.84       17.03       
C           94.06       97.19       15.87       
C           94.84       96.23       15.22       
C           96.28       90.4        13.81       
C           98.12       91.43       12.36       
C           97.2        94.98       18.99       
C           98.98       96.32       17.61       
H           99.41       93.34       17.54       
H           96.01       93.63       13.79       
H           96.02       97.97       18.52       
H           94.36       95.71       14.37       
H           98.71       88.58       13.43       
H           99.88       90.81       17.73       
H           96.36       89.41       13.32       
H           95.65       90.85       13.13       
H           95.81829    90.33798    14.79543    
H           99.15       91.73       12.37       
H           98.01       90.51       11.76       
H           97.65648    92.26289    11.83129    
H           99.71       95.61       18.01       
H           99.26       96.56       16.59       
H           99.10176    97.20093    18.24026    
H           98.03       94.51       19.51       
H           96.71       95.73       19.66       
H           96.58318    94.09064    18.8609     
H           99.91       86.26       14.4        
H           93.65       99.17       18.54       
S           100.65      87.75       17.66       
C           100.14      86.91       15.23       
C           100.57      86.48       16.42       
C           88.32       99.33       18.66       
C           89.38       100.18      18.95       
C           88.68       98.38       17.77       
N           89.3        101.18      19.87       
N           91.52       101.02      18.82       
S           90.81       101.91      19.99       
H           90.03       97.3        16.49       
H           87.96       97.63       17.45       
C           89.95       98.17       17.15       
C           90.67       100.06      18.3        
C           91.0        98.96       17.45       
C           72.17       98.56       22.31       
C           72.97       97.72       21.52       
S           73.22       99.85       23.02       
C           78.92       97.74       21.31       
C           78.42       98.88       21.92       
C           79.23       99.95       22.49       
C           80.62       99.9        22.19       
C           81.15       98.78       21.39       
C           80.31       97.67       21.09       
C           81.68       100.98      22.12       
C           82.94       100.26      21.57       
C           82.56       98.98       21.06       
C           77.89       96.72       20.93       
C           76.69       97.55       21.14       
C           76.96       98.74       21.91       
C           84.15       100.8       21.22       
C           85.03       100.05      20.44       
C           84.66       98.75       20.09       
C           83.47       98.18       20.4        
C           75.36       97.23       20.94       
C           74.36       97.98       21.5        
C           74.7        99.07       22.38       
C           76.02       99.55       22.51       
C           81.06       102.04      21.21       
C           81.93       101.58      23.51       
C           77.92       96.23       19.5        
C           77.98       95.57       21.91       
H           80.79       96.79       20.67       
H           78.79       100.7       23.09       
H           75.14       96.35       20.31       
H           76.29       100.39      23.1        
H           84.43       101.75      21.6        
H           83.19       97.16       20.1        
H           81.71       102.89      21.01       
H           80.27       102.44      21.78       
H           80.81389    101.67767   20.21188    
H           80.95       101.65      23.93       
H           82.23       102.66      23.44       
H           82.55575    100.9974    24.1861     
H           78.57       94.79       21.43       
H           77.0        95.22       22.2        
H           78.39427    95.82278    22.886      
H           78.76       95.56       19.4        
H           77.06       95.66       19.22       
H           78.01891    97.03544    18.77228    
H           86.99       101.17      20.36       
H           72.6        96.87       21.0        
S           85.96       97.89       19.18       
C           86.42       100.26      20.05       
C           86.99       99.32       19.28       
C           67.8        98.64       22.55       
C           68.47       97.46       22.19       
C           68.58       99.68       22.94       
N           67.77       96.35       21.76       
N           70.22       96.17       21.5        
S           68.91       95.35       21.05       
H           70.58       100.51      23.28       
H           68.13       100.58      23.18       
C           70.03       99.6        23.0        
C           69.91       97.36       22.07       
C           70.71       98.48       22.47       
C           51.64       100.66      18.33       
C           52.63       101.56      18.26       
S           52.27       99.18       19.08       
C           58.37       100.84      19.98       
C           57.53       99.84       20.4        
C           57.98       98.66       21.11       
C           59.36       98.62       21.38       
C           60.22       99.62       20.95       
C           59.75       100.67      20.22       
C           60.13       97.66       22.26       
C           61.51       98.2        22.2        
C           61.52       99.36       21.45       
C           57.56       102.0       19.33       
C           56.19       101.41      19.45       
C           56.21       100.1       19.93       
C           62.66       97.55       22.76       
C           63.93       98.19       22.41       
C           63.92       99.43       21.69       
C           62.72       100.06      21.23       
C           55.11       101.95      18.78       
C           53.93       101.21      18.75       
C           53.82       99.92       19.34       
C           54.99       99.35       19.9        
C           59.83       97.57       23.8        
C           60.19       96.19       21.66       
C           57.77       103.26      20.26       
C           57.96       102.26      17.88       
H           60.44       101.36      19.77       
H           57.25       97.85       21.33       
H           55.11       102.98      18.46       
H           54.94       98.33       20.37       
H           62.6        96.67       23.29       
H           62.72       100.96      20.62       
H           58.8        97.38       23.91       
H           60.27       96.67       24.16       
H           60.17411    98.44462    24.35202    
H           60.59       96.22       20.63       
H           60.92       95.73       22.22       
H           59.29221    95.57755    21.74352    
H           57.44       101.64      17.12       
H           58.98       101.85      17.78       
H           57.75563    103.24663   17.4642     
H           58.77       103.63      19.98       
H           57.0        103.94      20.17       
H           57.8119     102.98762   21.31459    
H           65.58       96.96       23.4        
H           52.58       102.45      17.64       
S           65.52       100.06      21.58       
C           65.34       97.86       22.82       
C           66.3        98.76       22.49       
C           48.13       99.69       15.84       
C           47.96       99.8        17.21       
C           49.41       100.1       15.39       
N           46.93       99.37       17.92       
N           48.81       99.96       19.36       
S           47.27       99.48       19.53       
H           51.3        100.84      15.73       
H           49.6        100.0       14.33       
C           50.45       100.54      16.21       
C           49.1        100.21      18.02       
C           50.38       100.62      17.54       
C           41.2        94.74       2.48        
C           42.3        94.1        2.89        
S           40.34       95.56       3.8         
C           44.25       94.5        8.67        
C           42.86       94.79       8.45        
C           42.21       95.45       9.46        
C           42.97       95.87       10.58       
C           44.33       95.59       10.63       
C           44.99       94.77       9.8         
C           42.47       96.56       11.83       
C           43.81       96.91       12.44       
C           44.88       96.33       11.73       
C           44.8        93.98       7.34        
C           43.62       94.02       6.35        
C           42.52       94.57       7.05        
C           44.05       97.65       13.5        
C           45.37       97.99       13.83       
C           46.46       97.52       13.04       
C           46.17       96.55       12.06       
C           43.64       93.69       5.01        
C           42.59       94.21       4.31        
C           41.48       94.9        4.97        
C           41.47       95.04       6.37        
C           41.62       97.79       11.53       
C           41.74       95.64       12.79       
C           45.95       94.93       6.84        
C           45.33       92.58       7.47        
H           46.06       94.56       9.84        
H           41.14       95.7        9.33        
H           44.32       93.03       4.55        
H           40.6        95.36       6.92        
H           43.19       98.11       14.04       
H           46.95       96.02       11.42       
H           41.19       98.23       12.43       
H           40.73       97.56       10.99       
H           42.13928    98.57613    10.98187    
H           40.66       95.7        12.57       
H           41.89       95.95       13.86       
H           42.00711    94.59263    12.64941    
H           46.37       92.62       7.92        
H           45.44       92.18       6.42        
H           44.81871    91.94454    8.19311     
H           46.8        94.91       7.53        
H           46.28       94.59       5.9         
H           45.59398    95.93993    6.63656     
H           45.24       99.35       15.68       
H           42.92       93.56       2.16        
S           48.01       98.09       13.68       
C           45.89       98.79       14.99       
C           47.26       99.04       14.91       
C           39.16       94.64       -1.41       
C           39.98       93.61       -1.08       
C           39.08       95.54       -0.44       
N           40.17       92.49       -1.73       
N           41.4        92.42       0.35        
S           41.15       91.44       -0.89       
H           39.59       96.55       1.38        
H           38.53       96.43       -0.68       
C           39.77       95.66       0.77        
C           40.66       93.58       0.24        
C           40.6        94.66       1.17        
C           23.46       96.05       -4.17       
C           24.03       94.88       -3.77       
S           24.65       97.01       -5.1        
C           30.16       94.19       -3.77       
C           29.68       95.31       -4.53       
C           30.55       96.27       -5.01       
C           31.92       96.11       -4.77       
C           32.32       94.98       -4.05       
C           31.48       93.95       -3.58       
C           33.06       97.16       -4.84       
C           34.24       96.3        -4.39       
C           33.76       95.04       -3.99       
C           28.98       93.52       -3.1        
C           27.8        94.14       -3.83       
C           28.22       95.26       -4.54       
C           35.57       96.68       -4.18       
C           36.42       95.64       -3.66       
C           35.98       94.28       -3.5        
C           34.64       94.05       -3.56       
C           26.44       93.9        -3.6        
C           25.46       94.8        -3.98       
C           25.91       95.89       -4.69       
C           27.24       96.18       -4.96       
C           33.27       97.55       -6.35       
C           32.96       98.39       -3.89       
C           29.04       91.95       -3.19       
C           29.14       94.02       -1.65       
H           31.89       93.04       -3.06       
H           30.11       97.17       -5.52       
H           26.07       93.07       -2.99       
H           27.47       97.15       -5.39       
H           36.0        97.69       -4.27       
H           34.22       93.14       -3.13       
H           32.36       97.98       -6.73       
H           33.58       96.64       -6.79       
H           34.04845    98.25199    -6.64887    
H           32.8        98.03       -2.85       
H           33.91       98.91       -3.93       
H           32.16563    99.11281    -4.07607    
H           29.85       93.53       -1.14       
H           29.67       94.91       -1.8        
H           28.22552    94.28527    -1.11946    
H           29.69       91.56       -2.46       
H           28.13       91.52       -2.95       
H           29.3199     91.60012    -4.18365    
H           38.31       96.79       -3.12       
H           23.49       94.18       -3.11       
S           37.26       93.35       -2.78       
C           37.81       95.83       -3.18       
C           38.34       94.73       -2.61       
C           19.09       96.78       -4.13       
C           20.05       97.83       -4.19       
C           19.76       95.59       -4.16       
N           19.59       99.11       -4.42       
N           22.1        98.9        -4.37       
S           20.92       100.06      -4.4        
H           21.49       94.39       -3.96       
H           19.16       94.71       -4.16       
C           21.18       95.42       -4.1        
C           21.51       97.71       -4.3        
C           22.09       96.43       -4.12       
H           86.57       -0.85       56.96       
H           18.06       96.87       -3.94       
