612

C           25.24       64.39       35.85       
C           24.82       65.67       36.07       
S           23.92       63.32       35.55       
C           18.93       67.17       36.86       
C           19.21       65.85       36.45       
C           18.19       64.91       36.13       
C           16.85       65.32       36.33       
C           16.6        66.64       36.8        
C           17.67       67.58       37.08       
C           15.51       64.59       36.1        
C           14.49       65.65       36.6        
C           15.14       66.83       37.01       
C           20.25       67.88       37.09       
C           21.3        66.78       36.7        
C           20.65       65.59       36.31       
C           13.11       65.65       36.58       
C           12.37       66.74       36.96       
C           12.99       67.97       37.22       
C           14.4        68.0        37.35       
C           22.64       66.86       36.5        
C           23.4        65.78       36.11       
C           22.74       64.56       35.92       
C           21.32       64.44       35.87       
C           15.33       64.26       34.62       
C           15.44       63.26       36.84       
C           20.55       69.09       36.11       
C           20.26       68.35       38.59       
H           17.4        68.55       37.46       
H           18.39       63.87       35.75       
H           23.21       67.75       36.8        
H           20.79       63.48       35.57       
H           12.62       64.71       36.3        
H           14.82       68.96       37.56       
H           14.69       63.38       34.42       
H           16.27       63.97       34.2        
H           14.96979    65.08128    34.00044    
H           16.18       62.62       36.37       
H           14.51       62.92       36.66       
H           15.75107    63.36605    37.87927    
H           19.99       67.4        39.1        
H           19.45       69.04       38.84       
H           21.21943    68.73663    38.93368    
H           19.8        69.9        36.33       
H           21.48       69.61       36.27       
H           20.50309    68.83535    35.0512     
H           10.34       66.0        36.75       
H           25.49       66.48       36.26       
S           11.76       69.22       37.46       
C           10.95       66.86       37.03       
C           10.45       68.09       37.37       
C           29.57       63.22       35.6        
C           28.57       62.56       34.81       
C           29.06       64.28       36.34       
N           28.87       61.55       33.89       
N           26.47       62.37       33.88       
S           27.45       61.27       33.12       
H           27.29       65.37       37.17       
H           29.79       64.82       36.92       
C           27.63       64.59       36.47       
C           27.18       62.94       34.83       
C           26.66       63.92       35.77       
C           45.2        60.29       39.77       
C           44.3        60.63       40.77       
S           44.47       60.02       38.21       
C           38.72       62.5        39.08       
C           39.59       62.03       38.01       
C           39.17       61.9        36.69       
C           37.85       62.28       36.4        
C           37.0        62.58       37.47       
C           37.39       62.8        38.78       
C           37.17       62.39       35.07       
C           35.73       62.53       35.54       
C           35.64       62.69       36.93       
C           39.5        62.58       40.43       
C           40.78       61.9        39.94       
C           40.82       61.57       38.58       
C           34.55       62.67       34.83       
C           33.3        62.8        35.42       
C           33.28       62.97       36.82       
C           34.43       62.98       37.59       
C           41.83       61.54       40.81       
C           43.05       60.98       40.21       
C           43.02       60.66       38.83       
C           41.91       60.95       38.01       
C           37.58       63.67       34.31       
C           37.23       61.1        34.17       
C           39.79       63.99       40.9        
C           38.79       61.76       41.5        
H           36.64       63.01       39.53       
H           39.81       61.46       35.96       
H           41.86       61.86       41.87       
H           41.89       60.71       36.94       
H           34.6        62.63       33.78       
H           34.37       63.39       38.68       
H           38.64       63.48       34.1        
H           37.07       63.72       33.4        
H           37.44333    64.57636    34.89985    
H           36.99       60.24       34.81       
H           36.44       61.23       33.43       
H           38.21529    60.88026    33.75887    
H           39.51       61.05       41.95       
H           38.02       61.17       41.06       
H           38.3166     62.31113    42.31256    
H           38.85       64.51       40.95       
H           40.34       63.95       41.85       
H           40.44       64.49227    40.18353    
H           31.88       62.59       33.72       
H           44.57       60.86       41.8        
S           31.61       63.05       37.31       
C           31.97       62.74       34.74       
C           30.99       62.95       35.68       
C           49.01       57.99       40.09       
C           48.26       58.26       41.21       
C           48.53       58.6        38.96       
N           48.59       57.73       42.37       
N           46.49       59.16       42.43       
S           47.52       58.38       43.43       
H           47.09       59.81       37.89       
H           49.07       58.53       38.02       
C           47.35       59.42       38.87       
C           47.03       59.05       41.15       
C           46.56       59.66       39.98       
C           62.07       48.05       38.43       
C           61.66       48.71       37.3        
S           60.86       48.0        39.73       
C           56.58       51.97       37.41       
C           56.76       51.12       38.57       
C           55.86       51.16       39.64       
C           54.83       52.03       39.63       
C           54.71       53.05       38.54       
C           55.66       53.04       37.47       
C           53.76       52.19       40.68       
C           53.08       53.45       40.22       
C           53.69       53.99       38.99       
C           57.46       51.45       36.23       
C           58.43       50.55       37.0        
C           57.92       50.28       38.32       
C           52.01       54.0        40.79       
C           51.42       55.13       40.23       
C           51.98       55.67       39.07       
C           53.08       55.12       38.42       
C           59.59       49.97       36.58       
C           60.27       49.15       37.44       
C           59.69       48.89       38.68       
C           58.54       49.37       39.12       
C           52.71       51.12       40.66       
C           54.29       52.34       42.17       
C           56.8        50.49       35.14       
C           58.27       52.71       35.7        
H           55.54       53.68       36.6        
H           55.89       50.52       40.56       
H           60.06       50.38       35.7        
H           58.25       49.23       40.15       
H           51.64       53.65       41.72       
H           53.58       55.69       37.58       
H           52.06       51.33       41.47       
H           53.24       50.19       40.95       
H           52.17971    51.08368    39.70838    
H           54.57       51.4        42.63       
H           53.49       52.61       42.82       
H           54.88169    53.24535    42.30545    
H           59.27       52.48       35.3        
H           58.58       53.21       36.6        
H           57.7474     53.44605    35.08908    
H           56.34       50.88       34.25       
H           57.56       50.08       34.59       
H           56.32182    49.63911    35.62522    
H           49.6        55.62       41.52       
H           62.33       49.11       36.61       
S           51.29       57.26       38.69       
C           50.27       55.87       40.69       
C           50.14       57.06       40.0        
C           66.05       47.15       40.16       
C           66.0        47.73       38.85       
C           64.87       46.87       40.72       
N           66.96       48.08       37.96       
N           64.72       48.82       37.16       
S           66.27       48.95       36.77       
H           62.8        46.68       40.77       
H           64.87       46.45       41.7        
C           63.61       47.11       40.15       
C           64.69       48.07       38.27       
C           63.42       47.7        38.92       
C           81.0        43.75       47.06       
C           80.87       44.43       45.93       
S           79.52       43.86       47.96       
C           75.48       46.32       43.67       
C           75.44       45.72       44.92       
C           74.25       45.39       45.51       
C           73.07       45.72       44.76       
C           73.06       46.17       43.48       
C           74.33       46.47       42.92       
C           71.64       45.72       45.35       
C           70.8        45.94       44.09       
C           71.66       46.14       42.97       
C           76.97       46.28       43.15       
C           77.73       45.69       44.31       
C           76.82       45.55       45.41       
C           69.46       45.91       43.91       
C           68.94       46.2        42.58       
C           69.78       46.4        41.52       
C           71.19       46.38       41.68       
C           79.08       45.56       44.47       
C           79.58       44.98       45.64       
C           78.67       44.78       46.71       
C           77.29       45.07       46.65       
C           71.2        44.38       45.97       
C           71.41       46.84       46.32       
C           77.06       45.39       41.89       
C           77.54       47.72       42.88       
H           74.4        46.92       41.91       
H           74.25       45.0        46.52       
H           79.68       45.75       43.6        
H           76.66       44.92       47.53       
H           68.86       45.96       44.79       
H           71.82       46.53       40.81       
H           71.75       43.96       46.81       
H           70.23       44.6        46.24       
H           71.12748    43.58951    45.22303    
H           71.64       46.52       47.34       
H           70.31       47.13       46.32       
H           72.06064    47.67953    46.07514    
H           77.79       47.8        41.82       
H           78.46       47.76       43.33       
H           76.88862    48.49745    43.27923    
H           76.42       45.71       41.05       
H           77.98       45.35       41.34       
H           76.89259    44.32006    42.01373    
H           66.78       46.42       42.94       
H           81.7        44.43       45.24       
S           68.83       46.79       40.02       
C           67.55       46.46       42.17       
C           67.3        46.89       40.84       
C           84.26       41.24       48.48       
C           83.87       41.21       47.12       
C           83.62       42.15       49.26       
N           84.43       40.43       46.18       
N           82.62       41.92       45.29       
S           83.6        40.71       44.79       
H           82.06       43.6        49.37       
H           83.92       42.4        50.32       
C           82.55       42.95       48.7        
C           82.85       42.11       46.6        
C           82.08       42.88       47.5        
C           98.0        32.94       52.4        
C           97.64       34.14       52.92       
S           96.7        32.23       51.46       
C           92.26       36.64       52.04       
C           92.4        35.37       51.42       
C           91.35       34.85       50.6        
C           90.27       35.65       50.29       
C           90.27       36.95       50.79       
C           91.2        37.43       51.72       
C           89.01       35.29       49.51       
C           88.28       36.65       49.62       
C           89.0        37.6        50.37       
C           93.36       36.8        53.1        
C           94.34       35.77       52.58       
C           93.69       34.78       51.79       
C           87.07       37.0        49.06       
C           86.61       38.3        49.27       
C           87.34       39.23       50.04       
C           88.66       38.94       50.49       
C           95.59       35.58       53.03       
C           96.29       34.45       52.66       
C           95.62       33.46       51.96       
C           94.32       33.61       51.48       
C           89.31       34.94       48.05       
C           88.22       34.21       50.29       
C           94.1        38.17       52.95       
C           93.04       36.4        54.56       
H           91.11       38.42       52.18       
H           91.4        33.93       50.07       
H           96.15       36.34       53.44       
H           93.9        32.88       50.86       
H           86.61       36.42       48.32       
H           89.31       39.74       50.91       
H           90.12       34.26       47.98       
H           89.43       35.82       47.48       
H           88.57358    34.33614    47.51978    
H           88.77       33.29       49.94       
H           87.21       34.2        49.97       
H           88.38848    34.22465    51.3668     
H           93.84       36.73       55.19       
H           93.03       35.3        54.68       
H           92.14002    36.78671    55.03811    
H           93.37       38.99       53.17       
H           94.96       38.17       53.7        
H           94.46226    38.40909    51.95015    
H           84.65       38.45       48.11       
H           98.32       34.81       53.44       
S           86.53       40.78       50.03       
C           85.41       38.96       48.74       
C           85.28       40.31       48.99       
C           101.87      30.98       51.59       
C           101.81      32.4        51.88       
C           100.68      30.34       51.67       
N           102.85      33.24       51.99       
N           100.67      34.28       52.59       
S           102.18      34.75       52.28       
H           98.56       30.31       51.75       
H           100.56      29.28       51.43       
C           99.46       30.95       51.82       
C           100.61      32.98       52.23       
C           99.33       32.31       52.2        
C           110.58      20.37       43.39       
C           110.08      19.95       44.58       
S           110.46      22.09       43.22       
C           107.96      24.05       48.63       
C           108.75      24.57       47.57       
C           108.74      25.93       47.28       
C           107.95      26.76       48.04       
C           107.18      26.25       49.09       
C           107.08      24.9        49.34       
C           107.92      28.27       47.89       
C           106.94      28.51       49.05       
C           106.42      27.32       49.58       
C           108.12      22.48       48.65       
C           108.98      22.26       47.38       
C           109.17      23.49       46.71       
C           106.17      29.61       49.16       
C           105.04      29.63       50.08       
C           104.73      28.45       50.77       
C           105.42      27.23       50.54       
C           109.3       21.03       46.82       
C           109.73      21.03       45.44       
C           109.99      22.3        44.85       
C           109.79      23.55       45.52       
C           109.27      29.01       47.98       
C           107.13      28.54       46.55       
C           108.82      22.01       49.91       
C           106.68      21.86       48.65       
H           106.43      24.5        50.12       
H           109.24      26.34       46.46       
H           108.96      20.15       47.35       
H           110.09      24.49       45.1        
H           106.38      30.57       48.63       
H           105.13      26.31       50.93       
H           109.99      28.74       47.2        
H           109.09      30.07       48.06       
H           109.79532   28.82543    48.91706    
H           106.21      28.03       46.71       
H           106.82      29.59       46.44       
H           107.53528   28.28146    45.57173    
H           106.29      21.86       49.64       
H           107.04      20.83       48.47       
H           106.09141   22.17583    47.78865    
H           108.11      22.15       50.76       
H           108.95      21.01       49.83       
H           109.71276   22.60025    50.11659    
H           104.16      31.61       50.0        
H           110.06      18.9        44.92       
S           103.21      28.58       51.51       
C           104.15      30.68       50.5        
C           103.12      30.25       51.24       
C           112.1       18.32       40.02       
C           111.18      17.61       40.87       
C           112.45      19.59       40.32       
N           110.79      16.36       40.78       
N           109.92      17.47       42.82       
S           109.9       15.96       42.12       
H           112.37      21.11       41.69       
H           113.17      20.16       39.8        
C           111.99      20.12       41.46       
C           110.71      18.24       42.02       
C           111.13      19.58       42.34       
C           115.54      11.48       25.42       
C           115.08      12.8        25.63       
S           116.27      10.86       26.94       
C           114.66      15.4        31.01       
C           115.3       14.13       31.04       
C           115.61      13.52       32.26       
C           115.17      14.1        33.44       
C           114.48      15.29       33.41       
C           114.23      15.97       32.22       
C           115.33      13.69       34.86       
C           114.36      14.61       35.56       
C           114.14      15.76       34.72       
C           114.15      15.73       29.6        
C           114.69      14.53       28.79       
C           115.38      13.63       29.65       
C           114.08      14.78       36.89       
C           113.48      15.95       37.39       
C           113.39      17.06       36.52       
C           113.74      16.98       35.18       
C           114.46      14.32       27.44       
C           115.19      13.23       26.95       
C           115.84      12.34       27.79       
C           115.98      12.52       29.13       
C           114.91      12.2        35.04       
C           116.71      13.96       35.44       
C           112.58      15.83       29.43       
C           114.78      17.03       29.02       
H           113.77      16.91       32.17       
H           116.3       12.65       32.36       
H           113.86      14.98       26.81       
H           116.45      11.85       29.85       
H           114.29      13.97       37.62       
H           113.73      17.79       34.48       
H           115.56      11.47       34.44       
H           114.95      11.89       36.03       
H           113.85816   12.03654    34.80547    
H           116.73      15.02       35.53       
H           116.67      13.52       36.38       
H           117.52297   13.52548    34.8583     
H           114.28      17.34       28.07       
H           115.81      16.89       28.78       
H           114.77282   17.89153    29.68769    
H           112.27      16.16       28.41       
H           112.25      16.64       30.13       
H           112.13075   14.8602     29.64393    
H           113.03      15.64       39.48       
H           114.62      13.31       24.8        
S           112.84      18.46       37.41       
C           113.12      16.34       38.74       
C           112.71      17.61       38.9        
C           113.97      8.49        22.67       
C           115.3       8.39        23.14       
C           113.35      9.68        22.98       
N           116.11      7.35        22.98       
N           117.02      9.13        24.47       
S           117.46      7.68        23.84       
H           113.37      11.65       23.95       
H           112.35      9.78        22.72       
C           113.91      10.7        23.79       
C           115.82      9.36        24.06       
C           115.13      10.57       24.38       
C           102.53      0.0         14.12       
C           102.34      0.79        15.2        
S           104.22      -0.03       13.64       
C           106.77      3.39        18.48       
C           107.23      2.74        17.32       
C           108.62      2.73        16.94       
C           109.53      3.39        17.8        
C           109.08      3.96        18.98       
C           107.73      4.0         19.29       
C           111.02      3.61        17.61       
C           111.46      4.29        18.93       
C           110.28      4.58        19.66       
C           105.25      3.47        18.51       
C           104.87      2.54        17.33       
C           106.05      2.26        16.57       
C           112.7       4.85        19.35       
C           112.62      5.77        20.43       
C           111.44      6.04        21.07       
C           110.27      5.33        20.79       
C           103.63      2.06        16.96       
C           103.54      1.29        15.8        
C           104.69      1.02        15.03       
C           105.99      1.53        15.44       
C           111.79      2.27        17.41       
C           111.3       4.62        16.37       
C           104.68      2.99        19.9        
C           104.74      4.9         18.27       
H           107.45      4.48        20.25       
H           108.93      2.24        16.0        
H           102.73      2.18        17.61       
H           106.84      1.39        14.85       
H           113.61      4.72        18.83       
H           109.27      5.56        21.13       
H           112.65      2.45        16.77       
H           111.06      1.59        16.88       
H           111.9701    1.77819     18.36592    
H           111.11      4.04        15.48       
H           112.24      5.0         16.25       
H           110.54386   5.40495     16.3556     
H           105.17      5.53        19.07       
H           103.64      4.75        18.36       
H           104.86334   5.25551     17.24701    
H           103.63      3.19        20.09       
H           105.19      3.63        20.65       
H           104.80119   1.91356     20.02119    
H           114.68      6.64        20.59       
H           101.36      0.98        15.58       
S           111.52      7.35        22.24       
C           113.65      6.62        20.93       
C           113.19      7.53        21.85       
C           99.2        -2.0        12.01       
C           100.54      -1.94       11.49       
C           99.09       -1.49       13.25       
N           100.81      -2.49       10.33       
N           102.74      -1.43       11.53       
S           102.45      -2.31       10.17       
H           99.93       -0.46       15.05       
H           98.13       -1.45       13.72       
C           100.16      -0.84       14.01       
C           101.61      -1.4        12.25       
C           101.44      -0.75       13.48       
C           86.51       -10.96      6.8         
C           86.56       -10.57      8.14        
S           87.37       -9.79       5.79        
C           90.42       -6.1        9.9         
C           90.29       -6.38       8.54        
C           91.18       -5.9        7.57        
C           92.23       -5.07       8.04        
C           92.46       -4.95       9.42        
C           91.54       -5.37       10.33       
C           93.44       -4.43       7.28        
C           94.35       -4.03       8.42        
C           93.74       -4.24       9.65        
C           89.47       -6.97       10.68       
C           88.7        -7.74       9.55        
C           89.23       -7.3        8.31        
C           95.73       -3.57       8.39        
C           96.36       -3.33       9.59        
C           95.65       -3.51       10.77       
C           94.38       -4.0        10.84       
C           87.81       -8.83       9.6         
C           87.4        -9.41       8.35        
C           87.94       -8.87       7.17        
C           88.92       -7.92       7.11        
C           94.16       -5.48       6.32        
C           93.16       -3.02       6.62        
C           90.32       -8.03       11.41       
C           88.57       -6.23       11.7        
H           91.66       -5.27       11.43       
H           91.0        -6.17       6.53        
H           87.4        -9.15       10.59       
H           89.36       -7.66       6.15        
H           96.31       -3.53       7.45        
H           93.99       -4.22       11.79       
H           93.32       -5.77       5.65        
H           95.07       -5.11       5.86        
H           94.36908    -6.39298    6.87754     
H           92.98       -2.37       7.49        
H           94.03       -2.72       6.1         
H           92.24879    -3.00576    6.02202     
H           88.06       -6.93       12.28       
H           87.93       -5.48       11.17       
H           88.98821    -5.61297    12.49528    
H           89.76       -8.68       12.12       
H           91.13       -7.55       11.99       
H           90.91037    -8.64883    10.73427    
H           98.42       -2.61       9.18        
H           86.09       -11.14      8.89        
S           96.58       -3.1        12.15       
C           97.73       -2.82       9.97        
C           98.03       -2.62       11.31       
C           84.53       -14.44      4.74        
C           84.12       -14.01      6.07        
C           85.51       -13.65      4.19        
N           83.11       -14.53      6.8         
N           84.23       -12.74      7.98        
S           83.01       -13.79      8.23        
H           86.92       -12.0       4.32        
H           85.84       -13.83      3.13        
C           86.18       -12.56      4.9         
C           84.77       -12.85      6.74        
C           85.81       -12.08      6.13        
C           77.75       -20.58      -8.69       
C           79.1        -20.47      -8.58       
S           77.0        -20.44      -7.13       
C           81.74       -19.75      -3.06       
C           80.36       -19.91      -3.04       
C           79.6        -19.63      -1.89       
C           80.25       -19.21      -0.71       
C           81.62       -19.06      -0.75       
C           82.35       -19.27      -1.93       
C           79.74       -18.79      0.69        
C           81.01       -18.15      1.35        
C           82.13       -18.39      0.47        
C           82.31       -20.02      -4.45       
C           81.04       -20.09      -5.27       
C           79.93       -20.14      -4.39       
C           81.17       -17.47      2.53        
C           82.38       -16.91      2.9         
C           83.53       -17.1       2.07        
C           83.45       -17.82      0.8         
C           80.81       -20.19      -6.7        
C           79.53       -20.32      -7.22       
C           78.49       -20.39      -6.27       
C           78.64       -20.23      -4.89       
C           78.52       -17.85      0.58        
C           79.38       -20.03      1.5         
C           83.14       -18.82      -4.98       
C           83.01       -21.43      -4.48       
H           83.38       -18.99      -1.92       
H           78.51       -19.71      -1.92       
H           81.62       -20.32      -7.41       
H           77.79       -20.17      -4.19       
H           80.36       -17.17      3.18        
H           84.26       -17.96      0.19        
H           77.8        -18.37      0.01        
H           78.11       -17.68      1.63        
H           78.69341    -16.88178   0.11034     
H           80.23       -20.66      1.63        
H           78.91       -19.88      2.51        
H           78.66054    -20.6919    1.01796     
H           83.52       -21.5       -5.38       
H           82.36       -22.34      -4.4        
H           83.86421    -21.54806   -3.8133     
H           83.98       -18.57      -4.32       
H           83.61       -19.14      -5.79       
H           82.54333    -17.92156   -5.13774    
H           81.85       -15.56      4.68        
H           79.86       -20.45      -9.36       
S           84.85       -16.18      2.68        
C           82.59       -15.91      3.92        
C           83.86       -15.4       3.89        
C           75.42       -21.97      -12.29      
C           76.65       -21.22      -12.43      
C           75.03       -22.09      -10.95      
N           77.25       -20.98      -13.59      
N           78.58       -20.24      -11.62      
S           78.71       -20.28      -13.22      
H           75.34       -21.85      -8.8        
H           74.08       -22.62      -10.79      
C           75.72       -21.53      -9.79       
C           77.41       -20.78      -11.24      
C           76.93       -20.87      -9.91       
H           9.38        68.44       37.42       
H           74.89       -22.49      -13.08      
