612

C           70.44       59.37       101.86      
C           70.28       60.42       102.75      
S           71.38       58.08       102.68      
C           71.6        60.23       108.76      
C           72.01       59.1        108.08      
C           72.59       58.03       108.75      
C           72.66       58.16       110.15      
C           72.27       59.3        110.85      
C           71.71       60.34       110.15      
C           73.39       57.19       111.1       
C           73.11       57.82       112.45      
C           72.49       59.07       112.28      
C           70.83       61.19       107.82      
C           70.97       60.5        106.51      
C           71.64       59.26       106.66      
C           73.52       57.38       113.68      
C           73.21       58.14       114.79      
C           72.52       59.39       114.63      
C           72.22       59.88       113.35      
C           70.44       60.98       105.32      
C           70.64       60.17       104.13      
C           71.31       58.97       104.27      
C           71.81       58.47       105.49      
C           72.98       55.66       111.11      
C           74.95       57.13       110.97      
C           69.33       61.33       108.27      
C           71.54       62.54       107.76      
H           71.25       61.26       110.64      
H           72.97       57.15       108.3       
H           70.16       62.0        105.25      
H           72.3        57.49       105.55      
H           73.93       56.31       113.77      
H           71.69       60.83       113.32      
H           73.25       55.18       110.14      
H           73.52       55.06       111.86      
H           71.89174    55.60234    111.13162   
H           75.53       57.78       111.62      
H           75.23       56.08       111.14      
H           75.28428    57.24839    109.9393    
H           71.72       62.82       108.79      
H           70.92       63.21       107.21      
H           72.49937    62.44124    107.2521    
H           69.1        61.75       109.24      
H           68.86       62.02       107.55      
H           68.68603    60.4506     108.27692   
H           73.82       56.91       116.56      
H           69.8        61.36       102.45      
S           72.4        60.23       116.13      
C           73.38       57.87       116.17      
C           73.0        58.87       117.0       
C           70.23       59.07       97.45       
C           70.1        60.36       98.11       
C           70.43       58.04       98.35       
N           70.07       61.62       97.57       
N           70.08       61.67       100.02      
S           69.87       62.64       98.77       
H           70.75       57.25       100.29      
H           70.77       57.0        98.05       
C           70.52       58.15       99.74       
C           70.17       60.44       99.54       
C           70.38       59.34       100.43      
C           79.93       57.44       85.24       
C           79.35       56.32       85.69       
S           78.95       58.83       85.53       
C           74.17       56.41       88.92       
C           74.5        57.61       88.24       
C           73.84       58.81       88.42       
C           72.91       58.83       89.49       
C           72.6        57.64       90.2        
C           73.15       56.4        89.87       
C           72.15       60.02       90.01       
C           71.68       59.43       91.34       
C           71.81       57.98       91.38       
C           75.17       55.29       88.68       
C           76.07       56.04       87.67       
C           75.7        57.37       87.47       
C           71.1        60.05       92.46       
C           70.82       59.31       93.63       
C           70.92       57.91       93.61       
C           71.35       57.21       92.49       
C           77.25       55.56       87.0        
C           78.12       56.52       86.38       
C           77.73       57.82       86.29       
C           76.61       58.31       86.91       
C           73.07       61.25       90.21       
C           70.91       60.3        89.22       
C           75.99       54.87       89.92       
C           74.58       53.98       88.1        
H           72.77       55.5        90.43       
H           74.15       59.66       87.88       
H           77.63       54.55       87.16       
H           76.37       59.33       86.89       
H           70.89       61.08       92.47       
H           71.51       56.12       92.6        
H           73.46       61.63       89.25       
H           72.58       62.06       90.56       
H           73.86108    61.10427    90.94557    
H           70.17       59.49       89.21       
H           70.36       61.18       89.72       
H           71.0888     60.44304    88.15432    
H           73.87       53.49       88.78       
H           75.42       53.3        87.85       
H           74.00677    54.10493    87.18136    
H           75.43       54.23       90.57       
H           76.86       54.41       89.5        
H           76.41079    55.72585    90.44778    
H           70.46       60.85       95.09       
H           79.77       55.34       85.62       
S           70.5        57.29       95.21       
C           70.49       59.76       94.94       
C           70.35       58.85       96.0        
C           84.15       58.52       84.16       
C           83.73       57.16       84.25       
C           83.12       59.43       84.13       
N           84.55       56.16       84.19       
N           82.3        55.48       84.87       
S           83.7        54.76       84.4        
H           81.03       59.83       84.52       
H           83.29       60.5        84.1        
C           81.74       59.04       84.41       
C           82.37       56.76       84.58       
C           81.32       57.7        84.71       
C           97.95       67.21       86.92       
C           97.18       67.51       85.87       
S           97.6        65.6        87.52       
C           92.26       64.04       84.44       
C           93.23       63.43       85.27       
C           93.01       62.21       85.91       
C           91.77       61.57       85.6        
C           90.83       62.13       84.76       
C           91.07       63.37       84.23       
C           91.32       60.13       86.05       
C           89.98       60.02       85.31       
C           89.71       61.3        84.69       
C           92.63       65.48       84.03       
C           94.09       65.6        84.68       
C           94.33       64.41       85.44       
C           89.02       59.02       85.41       
C           87.8        59.17       84.73       
C           87.56       60.41       84.07       
C           88.46       61.47       84.07       
C           95.01       66.63       84.81       
C           96.13       66.53       85.65       
C           96.27       65.41       86.41       
C           95.37       64.35       86.28       
C           92.26       59.07       85.42       
C           91.19       60.05       87.59       
C           92.76       65.65       82.43       
C           91.48       66.4        84.6        
H           90.29       63.75       83.55       
H           93.81       61.76       86.42       
H           94.87       67.5        84.27       
H           95.48       63.44       86.86       
H           89.3        58.12       85.92       
H           88.19       62.4        83.53       
H           93.28       59.51       85.42       
H           92.26       58.16       85.98       
H           91.97819    58.78819    84.40547    
H           90.4        60.75       87.87       
H           90.87       59.07       87.84       
H           92.06799    60.27298    88.19623    
H           90.61       66.49       83.94       
H           91.25       65.99       85.63       
H           91.8823     67.38016    84.85601    
H           91.86       65.34       81.99       
H           93.03       66.69       82.24       
H           93.50202    64.98355    81.99028    
H           86.53       57.38       85.23       
H           97.25       68.37       85.21       
S           85.87       60.5        83.48       
C           86.65       58.35       84.73       
C           85.49       58.93       84.15       
C           101.28      69.28       88.97       
C           100.61      69.98       87.89       
C           100.72      68.11       89.35       
N           100.96      71.14       87.31       
N           98.92       70.13       86.25       
S           99.8        71.47       86.19       
H           99.34       66.49       88.97       
H           101.06      67.49       90.21       
C           99.6        67.5        88.68       
C           99.52       69.3        87.21       
C           99.0        67.98       87.56       
C           116.33      74.63       93.79       
C           115.33      75.52       93.36       
S           115.57      73.13       94.16       
C           109.49      73.81       92.39       
C           110.35      72.81       92.84       
C           109.95      71.5        92.95       
C           108.61      71.19       92.7        
C           107.73      72.18       92.23       
C           108.21      73.5        92.04       
C           108.07      69.8        92.37       
C           106.62      70.11       92.04       
C           106.51      71.5        91.81       
C           110.16      75.16       92.41       
C           111.61      74.79       92.78       
C           111.67      73.37       93.12       
C           105.63      69.27       91.69       
C           104.5       69.75       91.03       
C           104.36      71.12       90.8        
C           105.33      72.03       91.22       
C           112.74      75.56       92.92       
C           113.95      74.95       93.31       
C           113.93      73.62       93.7        
C           112.8       72.75       93.58       
C           108.86      69.11       91.12       
C           108.08      68.86       93.63       
C           110.2       75.74       90.97       
C           109.62      76.18       93.44       
H           107.54      74.25       91.57       
H           110.65      70.75       93.26       
H           112.69      76.64       92.65       
H           112.81      71.64       93.85       
H           105.7       68.23       91.82       
H           105.16      73.1        90.99       
H           109.84      68.79       91.36       
H           108.31      68.2        90.93       
H           108.9444    69.72894    90.22675    
H           107.48      69.22       94.45       
H           107.53      67.96       93.46       
H           109.0535    68.67791    94.08523    
H           108.81      76.84       93.06       
H           110.42      76.84       93.75       
H           109.17978   75.76687    94.34754    
H           109.26      76.13       90.66       
H           110.86      76.55       90.88       
H           110.59826   75.05209    90.22416    
H           103.48      67.95       90.48       
H           115.56      76.54       93.02       
S           102.78      71.41       90.0        
C           103.43      69.0        90.46       
C           102.43      69.73       89.81       
C           120.75      74.44       93.68       
C           120.03      75.62       93.38       
C           119.94      73.44       94.22       
N           120.57      76.7        92.84       
N           118.12      76.85       92.87       
S           119.43      77.77       92.49       
H           117.89      72.74       94.68       
H           120.35      72.44       94.39       
C           118.48      73.57       94.32       
C           118.62      75.74       93.4        
C           117.79      74.64       93.88       
C           135.25      72.99       86.44       
C           134.14      72.39       86.07       
S           135.07      73.99       87.93       
C           129.1       72.37       89.49       
C           130.15      73.11       90.0        
C           129.97      73.94       91.12       
C           128.75      73.85       91.76       
C           127.76      73.0        91.32       
C           127.89      72.24       90.17       
C           128.25      74.94       92.7        
C           126.79      74.58       92.74       
C           126.6       73.32       92.12       
C           129.6       71.59       88.23       
C           130.94      72.16       87.94       
C           131.23      73.09       89.0        
C           125.72      75.2        93.34       
C           124.44      74.62       93.27       
C           124.28      73.34       92.63       
C           125.35      72.72       92.01       
C           131.81      71.89       86.94       
C           133.06      72.53       87.04       
C           133.42      73.43       88.09       
C           132.49      73.7        89.1        
C           129.02      74.75       94.04       
C           128.3       76.41       92.15       
C           129.66      70.07       88.45       
C           128.75      71.87       86.92       
H           127.06      71.65       89.75       
H           130.85      74.49       91.44       
H           131.63      71.14       86.19       
H           132.75      74.26       89.99       
H           125.82      76.2        93.65       
H           125.16      71.9        91.41       
H           129.68      75.63       94.17       
H           129.82      74.04       93.89       
H           128.41021   74.51044    94.91113    
H           129.3       76.66       92.22       
H           127.78      77.13       92.81       
H           127.98357   76.48032    91.10931    
H           128.39      70.97       86.45       
H           129.39      72.47       86.27       
H           127.87179   72.50545    87.03424    
H           128.69      69.59       88.79       
H           129.85      69.62       87.45       
H           130.35677   69.81141    89.24733    
H           122.99      76.13       93.97       
H           133.99      71.7        85.28       
S           122.64      72.72       92.77       
C           123.14      75.15       93.56       
C           122.15      74.19       93.53       
C           139.45      72.61       85.06       
C           138.33      72.18       84.21       
C           139.04      73.13       86.24       
N           138.47      71.6        83.03       
N           136.15      71.8        83.69       
S           136.99      71.09       82.5        
H           137.58      73.79       87.57       
H           139.87      73.39       86.91       
C           137.7       73.31       86.62       
C           136.92      72.27       84.64       
C           136.64      72.9        85.88       
C           155.73      70.08       85.03       
C           154.95      70.11       86.16       
S           154.78      69.8        83.54       
C           148.92      70.0        86.1        
C           149.52      69.82       84.86       
C           148.78      69.85       83.65       
C           147.45      70.19       83.75       
C           146.84      70.53       85.02       
C           147.58      70.41       86.11       
C           146.46      70.37       82.66       
C           145.24      70.85       83.39       
C           145.47      70.87       84.76       
C           149.97      69.83       87.17       
C           151.25      69.81       86.38       
C           150.95      69.66       84.98       
C           144.07      71.34       82.87       
C           143.0       71.71       83.74       
C           143.23      71.59       85.09       
C           144.47      71.2        85.58       
C           152.56      69.85       86.85       
C           153.57      69.83       85.92       
C           153.3       69.62       84.5        
C           151.97      69.41       84.02       
C           147.04      71.52       81.7        
C           146.09      69.13       81.85       
C           149.84      71.19       88.0        
C           149.79      68.58       88.08       
H           147.14      70.5        87.07       
H           149.14      69.44       82.69       
H           152.76      70.13       87.86       
H           151.72      69.24       82.99       
H           143.87      71.37       81.77       
H           144.7       71.28       86.65       
H           146.55      71.48       80.7        
H           148.06      71.26       81.53       
H           147.06125   72.49756    82.18169    
H           146.9       68.78       81.18       
H           145.34      69.51       81.18       
H           145.61647   68.36136    82.46079    
H           150.5       68.54       88.93       
H           150.06      67.65       87.5        
H           148.75985   68.42657    88.40147    
H           148.9       71.35       88.5        
H           150.07      72.01       87.29       
H           150.49654   71.27658    88.86577    
H           141.07      72.2        82.57       
H           155.28      70.33       87.14       
S           141.9       72.15       86.11       
C           141.61      72.1        83.58       
C           140.84      72.35       84.75       
C           160.01      70.82       84.58       
C           159.34      71.5        85.66       
C           159.27      69.94       83.83       
N           159.75      72.45       86.51       
N           157.36      72.14       86.66       
S           158.52      73.17       87.23       
H           157.5       68.86       83.3        
H           159.78      69.4        83.07       
C           157.92      69.66       83.96       
C           157.87      71.32       85.78       
C           157.16      70.34       84.89       
C           171.19      74.35       73.25       
C           170.95      73.08       73.85       
S           170.6       75.55       74.28       
C           167.75      72.07       78.8        
C           167.93      73.43       78.54       
C           167.25      74.37       79.31       
C           166.32      73.89       80.24       
C           166.22      72.51       80.48       
C           166.97      71.56       79.83       
C           165.22      74.69       80.91       
C           164.79      73.6        81.96       
C           165.19      72.31       81.46       
C           168.63      71.16       77.95       
C           169.24      72.26       77.08       
C           168.88      73.55       77.41       
C           163.83      73.65       82.85       
C           163.15      72.48       83.28       
C           163.56      71.19       82.82       
C           164.65      71.09       81.97       
C           169.91      72.07       75.93       
C           170.19      73.13       75.08       
C           169.89      74.44       75.46       
C           169.14      74.63       76.62       
C           165.73      75.93       81.61       
C           163.97      75.06       80.01       
C           169.67      70.45       78.86       
C           167.7       70.18       77.22       
H           166.87      70.47       79.98       
H           167.44      75.45       79.13       
H           170.14      71.13       75.75       
H           168.79      75.66       76.93       
H           163.28      74.64       83.06       
H           165.04      70.1        81.63       
H           166.04      76.66       80.86       
H           164.92      76.36       82.21       
H           166.53354   75.72219    82.31656    
H           163.36      74.17       79.86       
H           163.34      75.84       80.48       
H           164.19484   75.40814    79.00186    
H           167.24      69.47       77.81       
H           168.22      69.59       76.48       
H           167.00702   70.6467     76.51995    
H           169.2       69.97       79.71       
H           170.32      71.24       79.24       
H           170.35092   69.75444    78.36945    
H           161.33      73.22       84.29       
H           171.3       72.19       73.43       
S           162.52      69.93       83.44       
C           161.85      72.38       83.95       
C           161.36      71.14       84.08       
C           173.44      75.09       69.5        
C           172.45      74.02       69.59       
C           173.39      75.92       70.58       
N           172.36      73.09       68.63       
N           170.88      72.64       70.62       
S           171.12      72.16       69.06       
H           172.59      76.51       72.44       
H           173.97      76.85       70.67       
C           172.55      75.71       71.73       
C           171.62      73.74       70.73       
C           171.64      74.66       71.88       
C           185.11      74.1        58.07       
C           183.91      73.52       58.06       
S           185.09      75.32       59.31       
C           179.12      75.03       61.41       
C           180.27      75.77       61.68       
C           180.5       76.52       62.82       
C           179.5       76.47       63.78       
C           178.28      75.86       63.52       
C           178.1       75.16       62.36       
C           179.63      76.75       65.29       
C           178.2       76.47       65.77       
C           177.48      75.89       64.73       
C           179.28      74.0        60.21       
C           180.7       74.42       59.78       
C           181.23      75.43       60.62       
C           177.62      76.71       67.05       
C           176.33      76.18       67.23       
C           175.64      75.5        66.21       
C           176.13      75.44       64.93       
C           181.51      73.86       58.76       
C           182.88      74.19       58.76       
C           183.35      75.16       59.62       
C           182.55      75.89       60.47       
C           180.69      75.87       66.1        
C           179.87      78.25       65.57       
C           179.15      72.51       60.58       
C           178.47      74.41       58.99       
H           177.15      74.76       62.24       
H           181.47      76.93       63.12       
H           181.2       73.11       58.09       
H           182.87      76.69       61.18       
H           178.22      77.13       67.88       
H           175.59      74.81       64.18       
H           180.9       76.19       67.07       
H           181.62      76.01       65.64       
H           180.50583   74.7957     66.09233    
H           180.95      78.58       65.38       
H           179.49      78.47       66.56       
H           179.34421   78.91079    64.88079    
H           178.73      73.77       58.11       
H           178.68      75.5        58.78       
H           177.3885    74.34111    59.10711    
H           178.2       72.32       61.12       
H           179.12      72.0        59.66       
H           179.98458   72.17324    61.19495    
H           175.91      76.57       69.35       
H           183.69      72.67       57.36       
S           174.05      74.95       66.75       
C           175.5       76.19       68.44       
C           174.37      75.45       68.37       
C           188.86      71.87       57.3        
C           188.91      73.3        57.19       
C           187.63      71.39       57.56       
N           189.93      74.03       56.88       
N           187.76      75.41       57.26       
S           189.39      75.6        57.09       
H           185.48      71.48       57.84       
H           187.52      70.33       57.91       
C           186.39      72.08       57.69       
C           187.65      74.07       57.38       
C           186.38      73.4        57.58       
C           198.68      60.34       63.22       
C           197.8       59.96       62.21       
S           199.05      61.99       63.02       
C           194.81      63.95       58.8        
C           195.95      64.45       59.42       
C           196.2       65.78       59.57       
C           195.24      66.57       59.13       
C           194.07      66.19       58.38       
C           193.83      64.8        58.31       
C           195.16      68.12       59.4        
C           193.98      68.5        58.61       
C           193.27      67.41       58.04       
C           194.91      62.45       58.67       
C           195.99      62.15       59.72       
C           196.59      63.36       60.15       
C           193.45      69.77       58.47       
C           192.17      70.02       57.88       
C           191.42      68.84       57.48       
C           192.0       67.57       57.56       
C           196.34      61.01       60.31       
C           197.28      61.01       61.39       
C           197.9       62.25       61.73       
C           197.53      63.47       61.13       
C           194.94      68.35       60.94       
C           196.41      68.85       58.88       
C           193.64      61.76       59.07       
C           195.37      61.98       57.23       
H           192.99      64.48       57.67       
H           197.0       66.1        60.31       
H           195.77      60.06       60.05       
H           198.03      64.43       61.36       
H           194.06      70.56       58.95       
H           191.33      66.66       57.33       
H           195.38      69.32       61.09       
H           195.56      67.67       61.61       
H           193.91135   68.21236    61.27322    
H           197.3       68.5        59.42       
H           196.39      69.92       59.1        
H           196.55359   68.82949    57.79969    
H           195.53      60.84       57.02       
H           196.34      62.44       57.04       
H           194.69299   62.26506    56.42471    
H           192.81      62.19       58.55       
H           193.62      60.68       58.89       
H           193.36419   61.9368     60.1096     
H           191.76      72.19       58.09       
H           197.49      58.9        62.09       
S           189.83      69.4        56.82       
C           191.37      71.24       57.77       
C           190.04      71.03       57.43       
C           200.49      58.36       66.74       
C           200.05      57.56       65.64       
C           200.28      59.72       66.64       
N           200.17      56.21       65.53       
N           199.11      57.3        63.56       
S           199.46      55.79       64.11       
H           199.89      61.36       65.51       
H           200.65      60.43       67.39       
C           199.73      60.3        65.48       
C           199.49      58.19       64.43       
C           199.35      59.61       64.32       
C           206.76      50.73       80.09       
C           206.12      50.1        79.13       
S           207.04      52.44       79.64       
C           204.24      52.74       73.89       
C           205.1       53.51       74.68       
C           205.45      54.84       74.3        
C           204.9       55.43       73.18       
C           203.97      54.76       72.42       
C           203.68      53.33       72.74       
C           205.16      56.84       72.57       
C           204.04      56.88       71.54       
C           203.39      55.61       71.47       
C           203.99      51.37       74.49       
C           204.79      51.48       75.82       
C           205.47      52.74       75.91       
C           203.79      57.85       70.56       
C           202.74      57.68       69.61       
C           202.03      56.39       69.68       
C           202.42      55.38       70.57       
C           204.91      50.6        76.87       
C           205.8       50.88       77.99       
C           206.39      52.16       78.03       
C           206.26      53.1        77.01       
C           205.12      57.93       73.65       
C           206.48      56.92       71.72       
C           202.52      50.99       74.79       
C           204.66      50.23       73.71       
H           203.16      52.7        72.04       
H           206.13      55.4        74.93       
H           204.31      49.73       76.88       
H           206.79      54.07       77.05       
H           204.4       58.78       70.47       
H           201.91      54.43       70.62       
H           206.02      57.83       74.26       
H           204.94      58.95       73.19       
H           204.27709   57.84428    74.33575    
H           206.35      56.41       70.77       
H           206.81      57.92       71.49       
H           207.33567   56.43206    72.18673    
H           203.96      49.4        73.99       
H           205.63      49.99       74.11       
H           204.65239   50.29088    72.62173    
H           202.0       50.58       73.93       
H           202.39      50.15       75.54       
H           201.96511   51.84035    75.18635    
H           202.6       59.45       68.33       
H           205.73      49.15       79.25       
S           200.78      56.22       68.52       
C           202.19      58.49       68.57       
C           201.17      57.84       67.91       
C           208.41      49.07       83.89       
C           207.43      48.44       83.19       
C           208.64      50.27       83.37       
N           207.05      47.17       83.46       
N           205.89      48.03       81.42       
S           205.98      46.62       82.28       
H           208.48      51.74       81.78       
H           209.52      50.68       83.84       
C           208.06      50.86       82.17       
C           206.75      48.96       82.0        
C           207.15      50.17       81.39       
H           73.4        58.92       118.03      
H           208.91      48.59       84.68       
