612

C           13.73       86.86       43.28       
C           14.42       86.59       42.14       
S           12.63       88.15       43.16       
C           13.57       89.48       36.9        
C           12.8        89.99       37.98       
C           12.07       91.14       37.91       
C           11.99       91.74       36.67       
C           12.67       91.26       35.59       
C           13.47       90.19       35.68       
C           11.06       92.95       36.24       
C           11.34       92.97       34.77       
C           12.35       92.07       34.44       
C           14.57       88.45       37.35       
C           13.97       88.19       38.77       
C           13.12       89.21       39.2        
C           10.84       93.82       33.79       
C           11.55       93.91       32.58       
C           12.58       92.94       32.31       
C           12.93       91.95       33.2        
C           14.44       87.28       39.71       
C           13.96       87.3        41.04       
C           13.12       88.31       41.48       
C           12.69       89.29       40.54       
C           9.65        92.47       36.52       
C           11.36       94.38       36.84       
C           14.52       87.24       36.4        
C           16.05       88.89       37.65       
H           14.05       89.81       34.81       
H           11.51       91.54       38.76       
H           15.24       86.52       39.48       
H           12.05       90.1        40.83       
H           10.01       94.43       34.12       
H           13.69       91.23       32.96       
H           9.47        92.37       37.56       
H           8.96        93.23       36.18       
H           9.37017     91.54179    36.02177    
H           12.38       94.74       36.55       
H           10.73       95.04       36.35       
H           11.41013    94.40864    37.92847    
H           16.55       87.99       37.99       
H           15.97       89.52       38.55       
H           16.5926     89.33265    36.81468    
H           15.25       87.41       35.63       
H           14.92       86.33       36.93       
H           13.49352    87.09644    36.06262    
H           10.55       95.48       31.22       
H           15.18       85.85       42.17       
S           13.37       93.25       30.76       
C           11.38       94.79       31.42       
C           12.26       94.59       30.41       
C           13.18       84.54       47.07       
C           14.25       84.27       46.17       
C           12.43       85.6        46.71       
N           15.13       83.28       46.37       
N           15.51       84.47       44.21       
S           16.0        83.14       44.97       
H           12.04       87.12       45.38       
H           11.64       85.88       47.27       
C           12.75       86.4        45.58       
C           14.46       84.97       44.91       
C           13.69       86.18       44.61       
C           5.09        74.69       56.84       
C           6.22        74.19       56.26       
S           5.38        76.4        57.2        
C           10.48       77.73       53.72       
C           9.48        78.34       54.48       
C           9.38        79.71       54.66       
C           10.17       80.56       53.94       
C           11.09       79.95       53.05       
C           11.32       78.55       52.96       
C           10.1        82.1        53.83       
C           10.95       82.22       52.52       
C           11.56       80.99       52.15       
C           10.39       76.16       53.83       
C           9.22        76.05       54.85       
C           8.69        77.27       55.2        
C           11.06       83.34       51.64       
C           11.82       83.29       50.46       
C           12.32       82.02       50.14       
C           12.11       80.89       50.94       
C           8.53        74.92       55.24       
C           7.25        75.09       55.92       
C           6.87        76.37       56.31       
C           7.56        77.48       55.99       
C           8.69        82.58       53.42       
C           10.73       82.89       55.0        
C           10.09       75.48       52.47       
C           11.56       75.43       54.51       
H           12.04       78.15       52.27       
H           8.63        80.07       55.37       
H           8.85        73.86       55.0        
H           7.21        78.42       56.41       
H           10.69       84.31       52.03       
H           12.69       80.0        50.6        
H           8.04        82.46       54.29       
H           8.71        83.61       53.14       
H           8.16748     82.03658    52.63274    
H           11.82       82.8        54.8        
H           10.47       83.91       55.05       
H           10.74429    82.41117    55.97909    
H           12.01       74.67       53.93       
H           11.06       74.83       55.32       
H           12.18141    76.09527    55.10947    
H           10.8        75.89       51.67       
H           10.21       74.43       52.57       
H           9.0676      75.52173    52.09442    
H           11.77       85.27       49.38       
H           6.32        73.14       56.2        
S           13.17       82.12       48.55       
C           12.18       84.3        49.44       
C           12.93       83.8        48.35       
C           1.16        72.79       57.68       
C           2.31        72.0        57.69       
C           1.37        74.14       57.39       
N           2.42        70.69       57.97       
N           4.72        71.75       57.51       
S           4.02        70.36       57.9        
H           2.65        75.75       56.85       
H           0.59        74.86       57.27       
C           2.65        74.74       57.15       
C           3.65        72.64       57.45       
C           3.85        74.1        57.25       
C           -13.21      68.88       64.18       
C           -13.14      70.13       63.63       
S           -11.99      67.77       63.52       
C           -8.35       71.47       59.89       
C           -8.48       70.17       60.37       
C           -7.49       69.26       60.12       
C           -6.34       69.67       59.55       
C           -6.12       71.06       59.19       
C           -7.14       72.01       59.38       
C           -5.02       68.92       59.63       
C           -4.13       69.94       58.97       
C           -4.76       71.27       58.77       
C           -9.6        72.22       60.23       
C           -10.41      71.22       61.15       
C           -9.74       70.03       61.1        
C           -2.78       69.75       58.72       
C           -2.01       70.91       58.47       
C           -2.67       72.16       58.24       
C           -4.06       72.37       58.31       
C           -11.65      71.3        61.83       
C           -12.09      70.2        62.65       
C           -11.33      69.05       62.54       
C           -10.16      68.91       61.8        
C           -4.66       68.75       61.1        
C           -5.04       67.56       58.89       
C           -9.24       73.46       61.03       
C           -10.48      72.55       58.98       
H           -6.93       73.02       59.1        
H           -7.8        68.25       60.35       
H           -12.19      72.19       61.97       
H           -9.6        68.01       61.81       
H           -2.23       68.75       58.83       
H           -4.38       73.37       58.15       
H           -3.93       67.98       61.11       
H           -5.62       68.47       61.72       
H           -4.27527    69.65936    61.56168    
H           -5.79       66.88       59.36       
H           -4.06       67.11       58.93       
H           -5.30773    67.67978    57.8402     
H           -11.42      72.97       59.33       
H           -10.67      71.66       58.52       
H           -9.9955     73.18196    58.2357     
H           -8.53       74.05       60.53       
H           -10.04      74.2        61.16       
H           -8.79214    73.15661    61.97629    
H           -0.04       70.12       58.53       
H           -13.82      70.94       63.8        
S           -1.47       73.32       57.74       
C           -0.6        71.01       58.45       
C           -0.14       72.18       57.91       
C           -15.91      66.95       67.19       
C           -15.75      68.38       67.13       
C           -15.09      66.33       66.3        
N           -16.39      69.3        67.86       
N           -14.91      70.42       66.2        
S           -15.95      70.82       67.42       
H           -13.58      66.34       64.89       
H           -15.13      65.3        66.26       
C           -14.2       66.98       65.38       
C           -14.93      69.06       66.08       
C           -14.1       68.31       65.2        
C           -17.67      57.29       80.15       
C           -17.6       58.63       80.11       
S           -18.04      56.62       78.57       
C           -18.61      62.06       75.25       
C           -18.55      60.68       74.97       
C           -18.49      60.2        73.64       
C           -18.4       61.18       72.6        
C           -18.4       62.56       72.91       
C           -18.52      63.0        74.23       
C           -18.05      60.93       71.14       
C           -17.88      62.35       70.61       
C           -18.06      63.28       71.7        
C           -18.59      62.29       76.77       
C           -18.21      60.94       77.28       
C           -18.31      59.95       76.24       
C           -17.63      62.81       69.36       
C           -17.34      64.12       69.17       
C           -17.42      65.07       70.24       
C           -17.83      64.64       71.48       
C           -17.85      60.61       78.55       
C           -17.79      59.25       78.82       
C           -18.01      58.22       77.83       
C           -18.25      58.63       76.57       
C           -16.75      60.09       71.08       
C           -19.22      60.37       70.29       
C           -17.52      63.39       77.12       
C           -20.04      62.66       77.3        
H           -18.5       64.06       74.5        
H           -18.58      59.15       73.37       
H           -17.81      61.35       79.35       
H           -18.3       57.84       75.79       
H           -17.61      62.2        68.43       
H           -17.77      65.31       72.34       
H           -17.01      59.12       71.53       
H           -16.57      59.91       70.0        
H           -15.9286    60.56519    71.61628    
H           -20.03      61.06       70.33       
H           -18.88      60.23       69.26       
H           -19.58889   59.4336     70.70854    
H           -19.86      63.06       78.32       
H           -20.57      61.76       77.57       
H           -20.65967   63.29408    76.66592    
H           -17.84      64.35       76.62       
H           -17.51      63.57       78.19       
H           -16.48703   63.13703    76.88108    
H           -16.74      64.31       66.98       
H           -17.32      59.21       81.01       
S           -16.89      66.62       69.74       
C           -16.92      64.8        67.95       
C           -16.6       66.12       68.12       
C           -16.67      55.01       83.77       
C           -17.51      54.41       82.78       
C           -16.1       56.2        83.38       
N           -18.0       53.16       82.8        
N           -18.96      54.44       80.93       
S           -19.17      52.95       81.69       
H           -16.0       57.84       82.09       
H           -15.35      56.68       84.0        
C           -16.47      56.86       82.22       
C           -17.96      55.13       81.58       
C           -17.36      56.42       81.27       
C           -9.65       48.21       97.09       
C           -10.09      49.48       97.19       
S           -9.72       47.53       95.45       
C           -12.99      51.87       92.28       
C           -12.31      50.65       92.1        
C           -12.43      49.94       90.89       
C           -13.15      50.52       89.88       
C           -13.59      51.82       89.94       
C           -13.56      52.52       91.18       
C           -13.19      50.05       88.44       
C           -14.06      51.19       87.83       
C           -14.24      52.22       88.82       
C           -12.63      52.36       93.7        
C           -11.97      51.2        94.41       
C           -11.77      50.25       93.38       
C           -14.54      51.31       86.58       
C           -15.21      52.53       86.2        
C           -15.42      53.56       87.14       
C           -14.93      53.4        88.49       
C           -11.3       51.13       95.59       
C           -10.67      49.91       95.93       
C           -10.52      48.96       94.85       
C           -11.02      49.12       93.6        
C           -11.76      50.05       87.71       
C           -14.01      48.77       88.22       
C           -11.6       53.58       93.6        
C           -13.92      52.77       94.51       
H           -13.97      53.48       91.21       
H           -12.18      48.95       90.82       
H           -11.41      51.92       96.37       
H           -10.87      48.41       92.77       
H           -14.3       50.63       85.82       
H           -15.08      54.21       89.23       
H           -11.01      49.53       88.26       
H           -11.89      49.72       86.68       
H           -11.30195   51.03657    87.63953    
H           -15.07      48.78       88.48       
H           -14.15      48.55       87.14       
H           -13.55922   47.93888    88.76234    
H           -14.48      53.46       93.86       
H           -14.56      51.97       94.72       
H           -13.73759   53.33829    95.42207    
H           -10.99      53.73       94.49       
H           -12.13      54.48       93.43       
H           -10.87664   53.4255     92.79939    
H           -15.58      52.37       83.98       
H           -10.2       50.06       98.09       
S           -16.19      54.99       86.51       
C           -15.71      52.98       84.91       
C           -16.16      54.28       84.88       
C           -8.55       45.98       100.71      
C           -8.26       45.47       99.4        
C           -9.38       47.07       100.64      
N           -7.45       44.39       99.29       
N           -8.28       45.39       97.13       
S           -7.25       44.2        97.64       
H           -10.08      48.81       99.68       
H           -9.55       47.57       101.62      
C           -9.71       47.83       99.48       
C           -8.78       46.09       98.17       
C           -9.42       47.37       98.24       
C           -1.34       50.14       114.76      
C           -2.65       49.94       114.66      
S           -0.57       49.53       113.28      
C           -5.31       47.12       109.83      
C           -3.88       47.25       109.73      
C           -3.18       46.94       108.55      
C           -3.88       46.5        107.41      
C           -5.29       46.48       107.48      
C           -6.02       46.8        108.66      
C           -3.38       46.11       106.02      
C           -4.71       45.61       105.45      
C           -5.81       46.02       106.2       
C           -5.86       47.79       111.13      
C           -4.52       48.09       111.9       
C           -3.43       47.89       110.99      
C           -4.9        45.2        104.11      
C           -6.2        45.32       103.55      
C           -7.24       45.72       104.39      
C           -7.12       45.99       105.78      
C           -4.42       48.73       113.1       
C           -3.12       49.2        113.53      
C           -2.06       48.93       112.64      
C           -2.2        48.28       111.41      
C           -2.68       47.37       105.42      
C           -2.32       44.99       106.21      
C           -6.57       49.14       110.67      
C           -6.83       47.03       112.05      
H           -7.05       46.75       108.67      
H           -2.1        47.23       108.57      
H           -5.26       48.74       113.77      
H           -1.34       48.16       110.79      
H           -4.02       44.98       103.49      
H           -7.87       46.38       106.45      
H           -1.94       47.66       106.15      
H           -3.41       48.2        105.44      
H           -2.24102    47.25672    104.42876   
H           -1.44       45.45       106.72      
H           -2.04       44.62       105.19      
H           -2.63728    44.17916    106.86572   
H           -7.8        47.45       112.0       
H           -6.53       47.28       113.1       
H           -6.96631    45.95998    111.89325   
H           -6.94       49.65       111.55      
H           -7.43       48.84       110.13      
H           -5.93828    49.77172    110.04554   
H           -6.04       44.97       101.43      
H           -3.38       50.17       115.38      
S           -8.72       46.0        103.47      
C           -6.66       45.23       102.24      
C           -7.95       45.56       101.97      
C           0.99        52.76       117.54      
C           -0.28       52.27       117.95      
C           1.44        52.13       116.44      
N           -0.87       52.67       119.06      
N           -2.34       51.2        117.69      
S           -2.42       52.09       119.05      
H           1.14        50.68       114.88      
H           2.49        52.21       116.16      
C           0.64        51.25       115.64      
C           -1.16       51.42       117.07      
C           -0.67       50.92       115.82      
C           12.55       63.06       123.76      
C           12.55       62.54       122.47      
S           11.12       62.47       124.65      
C           8.54        58.72       120.2       
C           8.29        59.07       121.62      
C           7.14        58.64       122.33      
C           6.26        57.77       121.8       
C           6.5         57.35       120.41      
C           7.59        57.84       119.62      
C           4.95        57.21       122.3       
C           4.54        56.23       121.21      
C           5.45        56.35       120.14      
C           9.97        59.2        119.78      
C           10.31       60.07       120.98      
C           9.42        59.87       122.03      
C           3.31        55.63       120.99      
C           3.13        54.87       119.85      
C           4.12        54.86       118.88      
C           5.24        55.67       118.92      
C           11.3        61.03       121.02      
C           11.55       61.58       122.27      
C           10.73       61.29       123.4       
C           9.62        60.47       123.32      
C           5.16        56.49       123.68      
C           3.77        58.25       122.35      
C           10.94       57.99       119.64      
C           9.94        60.16       118.58      
H           7.69        57.62       118.58      
H           7.04        58.87       123.42      
H           11.98       61.11       120.15      
H           8.88        60.35       124.15      
H           2.56        55.78       121.64      
H           5.93        55.81       118.11      
H           5.27        57.22       124.49      
H           4.22        55.93       123.94      
H           5.90594     55.69526    123.67303   
H           3.7         58.76       121.35      
H           2.87        57.75       122.56      
H           3.8746      59.03101    123.10312   
H           10.98       60.29       118.39      
H           9.52        61.05       118.85      
H           9.50038     59.76362    117.66473   
H           11.81       58.4        119.07      
H           10.42       57.27       119.04      
H           11.38577    57.62914    120.56691   
H           1.1         54.2        120.05      
H           13.16       63.01       121.66      
S           3.59        53.92       117.52      
C           2.0         54.08       119.49      
C           2.03        53.55       118.24      
C           14.45       66.62       125.6       
C           14.73       66.25       124.24      
C           13.49       65.87       126.17      
N           15.54       67.0        123.46      
N           14.47       65.13       122.23      
S           15.54       66.32       121.93      
H           12.16       64.11       126.11      
H           13.21       66.04       127.18      
C           12.92       64.67       125.54      
C           14.06       65.14       123.55      
C           13.2        64.28       124.25      
C           22.23       76.04       136.53      
C           21.79       74.73       136.79      
S           21.92       76.45       134.89      
C           18.83       71.46       132.63      
C           19.44       72.64       132.17      
C           19.36       72.99       130.83      
C           18.64       72.19       129.96      
C           17.99       71.04       130.5       
C           18.13       70.67       131.77      
C           18.43       72.28       128.47      
C           17.53       71.08       128.22      
C           17.22       70.38       129.48      
C           19.3        71.13       134.04      
C           19.98       72.47       134.42      
C           20.1        73.28       133.25      
C           16.99       70.7        127.02      
C           16.33       69.49       127.09      
C           16.09       68.76       128.29      
C           16.5        69.24       129.47      
C           20.57       72.8        135.61      
C           21.15       74.09       135.69      
C           21.23       74.83       134.52      
C           20.81       74.45       133.31      
C           17.84       73.57       127.96      
C           19.73       72.04       127.67      
C           18.08       70.82       135.02      
C           20.42       70.1        134.27      
H           17.68       69.72       132.13      
H           19.77       73.9        130.45      
H           20.49       72.16       136.46      
H           20.88       75.09       132.38      
H           17.27       71.29       126.17      
H           16.35       68.73       130.46      
H           17.34       73.41       127.07      
H           18.58       74.21       127.57      
H           17.27592    74.07547    128.74385   
H           20.4        72.93       127.58      
H           19.55       71.91       126.57      
H           20.33871    71.22838    128.06856   
H           20.5        69.94       135.39      
H           21.37       70.54       133.89      
H           20.19562    69.13234    133.82123   
H           18.08       69.96       135.66      
H           17.35       70.49       134.37      
H           17.6367     71.6351     135.592     
H           15.69       69.19       124.97      
H           21.85       74.2        137.78      
S           15.35       67.26       127.99      
C           15.69       68.84       125.99      
C           15.08       67.68       126.32      
C           24.24       79.12       139.16      
C           24.17       77.75       139.51      
C           23.64       79.33       137.89      
N           24.82       77.34       140.61      
N           23.48       75.59       139.44      
S           24.58       75.76       140.62      
H           22.49       78.67       136.18      
H           23.79       80.22       137.39      
C           22.89       78.34       137.15      
C           23.45       76.72       138.77      
C           22.84       76.97       137.48      
C           32.04       93.06       143.56      
C           30.88       93.0        142.84      
S           32.64       91.47       144.09      
C           27.67       87.85       142.05      
C           28.83       87.66       142.81      
C           29.26       86.4        143.18      
C           28.48       85.32       142.72      
C           27.4        85.51       141.85      
C           26.95       86.8        141.48      
C           28.64       83.89       143.06      
C           27.73       83.18       142.03      
C           26.96       84.19       141.42      
C           27.63       89.28       141.52      
C           28.76       89.92       142.27      
C           29.5        88.97       143.0       
C           27.32       81.84       141.96      
C           26.37       81.47       141.09      
C           25.72       82.5        140.47      
C           25.92       83.83       140.63      
C           29.19       91.22       142.08      
C           30.33       91.67       142.81      
C           31.15       90.71       143.47      
C           30.8        89.34       143.5       
C           30.08       83.47       142.82      
C           28.19       83.48       144.52      
C           27.83       89.32       140.0       
C           26.28       90.01       141.92      
H           26.08       86.98       140.83      
H           30.11       86.26       143.88      
H           28.56       91.97       141.49      
H           31.44       88.54       143.87      
H           27.94       81.14       142.55      
H           25.33       84.52       140.09      
H           30.77       83.68       143.59      
H           30.08       82.41       142.93      
H           30.38286    83.77286    141.81768   
H           27.1        83.58       144.64      
H           28.43       82.43       144.67      
H           28.59809    84.05569    145.35075   
H           25.58       89.75       141.16      
H           26.39       91.09       141.93      
H           25.89319    89.75657    142.90704   
H           27.59       90.28       139.57      
H           27.13       88.61       139.58      
H           28.84903    89.06524    139.70885   
H           26.46       79.18       141.08      
H           30.3        93.88       142.45      
S           24.48       81.81       139.44      
C           25.98       80.15       140.72      
C           25.0        80.16       139.76      
C           34.05       96.83       144.92      
C           33.41       96.74       143.68      
C           34.16       95.57       145.51      
N           33.37       97.69       142.75      
N           32.19       95.56       142.05      
S           32.51       97.06       141.51      
H           33.76       93.54       145.74      
H           34.67       95.46       146.43      
C           33.55       94.38       145.09      
C           32.73       95.51       143.2       
C           32.79       94.31       143.91      
C           34.09       109.21      155.6       
C           33.83       109.49      154.3       
S           34.7        107.64      155.92      
C           34.24       105.07      150.12      
C           35.0        104.89      151.31      
C           35.76       103.68      151.53      
C           35.82       102.72      150.47      
C           35.06       102.97      149.32      
C           34.36       104.11      149.14      
C           36.61       101.38      150.38      
C           36.1        100.87      149.03      
C           35.23       101.86      148.42      
C           33.99       106.58      149.97      
C           34.23       107.01      151.47      
C           34.8        105.97      152.21      
C           36.37       99.68       148.38      
C           35.61       99.33       147.23      
C           34.81       100.29      146.58      
C           34.73       101.63      147.13      
C           34.02       108.19      152.02      
C           34.11       108.32      153.45      
C           34.6        107.24      154.2       
C           35.1        106.05      153.55      
C           38.1        101.76      150.45      
C           36.29       100.3       151.48      
C           34.86       107.33      148.92      
C           32.49       106.83      149.72      
H           33.76       104.24      148.22      
H           36.33       103.54      152.46      
H           33.83       109.05      151.36      
H           35.49       105.19      154.08      
H           37.02       98.97       148.88      
H           34.27       102.42      146.59      
H           38.72       100.99      150.92      
H           38.08       102.59      151.13      
H           38.49751    102.2081    149.53934   
H           36.87       100.64      152.37      
H           36.79       99.38       151.16      
H           35.2188     100.21813   151.66422   
H           32.29       107.87      149.97      
H           31.78       106.37      150.39      
H           32.1108     106.6404    148.71583   
H           34.43       107.2       147.92      
H           34.79       108.36      149.23      
H           35.92451    107.10441   148.98345   
H           35.97       97.1        146.89      
H           33.55       110.47      153.95      
S           33.96       99.65       145.16      
C           35.44       98.04       146.57      
C           34.58       98.04       145.57      
C           34.46       112.02      159.01      
C           34.62       112.41      157.62      
C           34.29       110.58      159.15      
N           34.83       113.68      157.32      
N           34.43       112.18      155.31      
S           34.83       113.76      155.7       
H           34.01       108.69      158.24      
H           34.43       110.07      160.14      
C           34.2        109.76      157.97      
C           34.42       111.5       156.49      
C           34.22       110.19      156.69      
H           12.21       95.02       29.45       
H           33.92       112.7       159.64      
