612

C           84.27       82.57       19.26       
C           85.05       82.01       20.28       
S           84.57       81.79       17.75       
C           88.97       77.47       19.36       
C           88.27       77.84       18.2        
C           88.41       77.17       16.97       
C           89.28       76.1        16.94       
C           89.89       75.61       18.06       
C           89.65       76.26       19.3        
C           89.67       75.19       15.74       
C           90.56       74.12       16.44       
C           90.6        74.33       17.82       
C           88.74       78.36       20.5        
C           87.7        79.33       19.89       
C           87.45       79.02       18.54       
C           91.13       73.03       15.85       
C           91.75       72.1        16.68       
C           91.85       72.36       18.08       
C           91.32       73.46       18.64       
C           87.0        80.35       20.52       
C           85.96       80.97       19.81       
C           85.79       80.7        18.41       
C           86.66       79.74       17.72       
C           88.37       74.62       15.13       
C           90.51       76.01       14.76       
C           88.14       77.63       21.74       
C           90.08       79.09       20.95       
H           90.18       75.92       20.25       
H           87.88       77.36       16.08       
H           87.2        80.57       21.57       
H           86.56       79.6        16.61       
H           91.08       73.0        14.75       
H           91.33       73.59       19.71       
H           88.48       74.14       14.17       
H           87.73       75.5        14.79       
H           87.80787    73.96305    15.79372    
H           89.96       76.76       14.17       
H           90.9        75.23       14.04       
H           91.36183    76.49087    15.24087    
H           90.55       78.68       21.85       
H           89.65       80.1        21.09       
H           90.81758    79.11864    20.14797    
H           88.83       76.89       22.17       
H           88.14       78.33       22.53       
H           87.09117    77.37995    21.58024    
H           92.4        70.33       15.47       
H           85.03       82.42       21.25       
S           92.68       71.07       18.97       
C           92.38       70.83       16.39       
C           92.89       70.19       17.5        
C           80.83       85.43       19.43       
C           81.79       85.38       20.48       
C           81.14       84.57       18.41       
N           81.68       86.06       21.62       
N           83.67       84.54       21.56       
S           82.88       85.56       22.55       
H           82.27       83.18       17.36       
H           80.42       84.51       17.66       
C           82.28       83.72       18.28       
C           82.95       84.5        20.44       
C           83.26       83.62       19.34       
C           67.15       93.82       24.26       
C           68.46       94.21       24.47       
S           67.02       92.36       23.24       
C           73.25       91.41       21.84       
C           71.99       90.79       21.48       
C           71.94       89.61       20.79       
C           73.18       88.96       20.51       
C           74.43       89.61       20.91       
C           74.47       90.85       21.43       
C           73.45       87.62       19.8        
C           74.99       87.5        20.01       
C           75.53       88.68       20.62       
C           73.0        92.71       22.54       
C           71.51       92.59       22.88       
C           70.93       91.59       22.16       
C           75.85       86.58       19.44       
C           77.31       86.78       19.57       
C           77.81       87.86       20.3        
C           76.9        88.8        20.83       
C           70.78       93.55       23.55       
C           69.4        93.45       23.69       
C           68.73       92.35       22.96       
C           69.46       91.51       22.08       
C           72.71       86.39       20.46       
C           73.27       87.66       18.25       
C           73.85       92.96       23.83       
C           73.27       93.92       21.57       
H           75.34       91.39       21.69       
H           71.04       89.08       20.61       
H           71.33       94.38       24.06       
H           69.05       90.74       21.49       
H           75.34       85.65       19.15       
H           77.36       89.61       21.32       
H           72.61       85.71       19.66       
H           71.66       86.65       20.77       
H           73.24357    85.90623    21.27815    
H           74.03       88.35       17.84       
H           73.52       86.66       17.88       
H           72.27273    87.95629    17.9248     
H           74.21       94.41       21.89       
H           72.33       94.53       21.5        
H           73.31242    93.55233    20.54476    
H           74.96       93.32       23.74       
H           73.35       93.81       24.3        
H           73.8572     92.11737    24.52139    
H           78.21       84.98       18.61       
H           68.84       94.92       25.21       
S           79.59       87.81       20.3        
C           78.38       85.87       19.15       
C           79.62       86.18       19.54       
C           63.4        94.79       26.65       
C           63.29       94.33       25.38       
C           64.69       94.82       27.19       
N           62.17       94.09       24.71       
N           64.2        93.56       23.4        
S           62.54       93.6        23.18       
H           66.8        94.63       26.9        
H           64.87       94.99       28.24       
C           65.85       94.6        26.35       
C           64.51       94.08       24.59       
C           65.89       94.24       25.02       
C           52.83       95.34       39.32       
C           54.15       95.71       39.27       
S           52.21       94.86       37.75       
C           57.34       96.18       34.19       
C           56.1        95.47       33.95       
C           55.76       94.96       32.63       
C           56.71       95.19       31.64       
C           57.94       95.78       31.91       
C           58.25       96.31       33.22       
C           56.61       94.86       30.16       
C           58.05       95.18       29.74       
C           58.82       95.69       30.79       
C           57.59       96.39       35.67       
C           56.28       95.96       36.27       
C           55.4        95.43       35.28       
C           58.6        95.01       28.45       
C           59.95       95.27       28.36       
C           60.75       95.75       29.43       
C           60.17       96.03       30.62       
C           56.05       95.98       37.6        
C           54.75       95.6        38.01       
C           53.77       95.24       37.0        
C           54.17       95.03       35.68       
C           56.19       93.43       29.88       
C           55.76       95.9        29.24       
C           58.77       95.59       36.22       
C           57.65       97.92       36.02       
H           59.2        96.82       33.43       
H           54.8        94.44       32.38       
H           56.87       96.13       38.38       
H           53.38       94.59       35.13       
H           58.05       94.49       27.65       
H           60.75       96.39       31.46       
H           55.1        93.31       30.13       
H           56.37       93.3        28.82       
H           56.77754    92.64661    30.35874    
H           56.33       96.88       29.32       
H           55.74       95.49       28.24       
H           54.74379    96.13871    29.55373    
H           57.46       98.05       37.07       
H           56.78       98.43       35.6        
H           58.63073    98.32217    35.766      
H           59.63       96.01       35.72       
H           58.85       95.7        37.33       
H           58.70555    94.50874    36.09827    
H           60.48       94.48       26.33       
H           54.73       96.11       40.14       
S           62.44       95.78       29.11       
C           60.87       94.89       27.29       
C           62.2        95.08       27.49       
C           49.39       96.31       41.82       
C           50.59       97.06       41.93       
C           49.49       95.21       41.02       
N           50.79       98.1        42.8        
N           52.73       97.58       41.29       
S           52.37       98.63       42.44       
H           50.46       94.05       39.48       
H           48.53       94.64       40.93       
C           50.62       94.89       40.19       
C           51.74       96.76       41.09       
C           51.76       95.64       40.24       
C           36.36       96.56       51.6        
C           37.43       95.69       51.7        
S           36.92       97.96       50.66       
C           42.25       95.83       47.94       
C           41.45       96.99       48.07       
C           41.77       98.16       47.36       
C           42.67       98.01       46.36       
C           43.29       96.78       46.11       
C           43.14       95.68       46.93       
C           43.24       99.06       45.38       
C           44.29       98.23       44.62       
C           44.13       96.9        45.01       
C           41.71       94.79       48.95       
C           40.62       95.56       49.66       
C           40.45       96.84       49.09       
C           45.28       98.6        43.72       
C           46.19       97.65       43.31       
C           46.06       96.29       43.72       
C           44.95       95.91       44.47       
C           39.67       95.13       50.6        
C           38.56       95.98       50.85       
C           38.46       97.24       50.33       
C           39.4        97.7        49.39       
C           42.11       99.7        44.57       
C           43.93       100.1       46.21       
C           41.19       93.52       48.23       
C           42.67       94.44       50.09       
H           43.6        94.72       46.68       
H           41.19       99.04       47.51       
H           39.74       94.09       51.04       
H           39.23       98.6        48.86       
H           45.32       99.64       43.44       
H           44.7        94.88       44.67       
H           42.14       100.77      44.55       
H           41.23       99.39       44.98       
H           42.00175    99.19485    43.61021    
H           43.09       100.66      46.62       
H           44.46       100.9       45.58       
H           44.58277    99.68658    46.97882    
H           42.22       93.63       50.67       
H           42.82       95.16       50.9        
H           43.64633    94.04804    49.80494    
H           41.99       92.97       47.64       
H           41.02       92.91       49.12       
H           40.28871    93.7329     47.65516    
H           47.81       98.76       42.26       
H           37.29       94.77       52.23       
S           47.33       95.21       43.11       
C           47.39       97.77       42.52       
C           48.09       96.61       42.36       
C           32.23       95.63       52.67       
C           32.65       96.95       52.56       
C           33.16       94.69       52.38       
N           31.88       97.93       52.97       
N           34.21       98.6        52.4        
S           32.84       99.26       53.06       
H           35.16       94.15       51.79       
H           32.98       93.61       52.64       
C           34.51       95.01       51.93       
C           34.0        97.32       52.19       
C           34.95       96.27       51.91       
C           16.93       92.55       58.19       
C           17.28       93.62       57.44       
S           18.06       91.25       57.82       
C           22.59       94.28       54.6        
C           22.41       93.01       55.26       
C           23.48       92.13       55.44       
C           24.75       92.54       55.0        
C           24.93       93.72       54.37       
C           23.83       94.58       54.12       
C           26.07       91.73       55.1        
C           27.05       92.73       54.45       
C           26.32       93.89       54.02       
C           21.35       95.15       54.71       
C           20.42       94.2        55.5        
C           21.04       92.97       55.81       
C           28.38       92.66       54.24       
C           29.03       93.85       53.85       
C           28.25       94.94       53.35       
C           26.88       95.01       53.49       
C           19.2        94.48       56.03       
C           18.58       93.52       56.76       
C           19.17       92.21       56.97       
C           20.44       92.0        56.58       
C           26.45       91.56       56.58       
C           26.09       90.41       54.28       
C           21.59       96.39       55.62       
C           20.67       95.51       53.37       
H           24.06       95.5        53.6        
H           23.33       91.23       56.01       
H           18.7        95.4        55.76       
H           20.95       91.0        56.76       
H           28.95       91.8        54.5        
H           26.31       95.89       53.26       
H           25.94       90.75       57.02       
H           27.47       91.31       56.78       
H           26.20499    92.39154    57.24077    
H           26.1        90.56       53.14       
H           27.01       89.88       54.59       
H           25.30258    89.69289    54.51201    
H           19.72       96.05       53.56       
H           20.27       94.59       52.78       
H           21.21105    96.16803    52.69003    
H           22.14       97.14       55.14       
H           20.59       96.83       55.84       
H           22.10899    96.14533    56.54676    
H           31.26       93.31       53.82       
H           16.67       94.49       57.39       
S           29.44       96.14       52.83       
C           30.5        94.01       53.59       
C           30.86       95.23       53.11       
C           12.99       91.93       60.09       
C           14.05       90.95       60.28       
C           13.38       93.01       59.41       
N           13.9        89.84       60.86       
N           16.13       90.04       59.91       
S           15.25       88.96       60.64       
H           14.9        94.26       58.43       
H           12.65       93.84       59.33       
C           14.69       93.26       58.86       
C           15.35       91.08       59.64       
C           15.66       92.27       58.92       
C           -1.29       85.86       55.36       
C           -0.96       87.13       55.11       
S           -0.25       85.15       56.57       
C           3.78        89.98       57.74       
C           3.62        88.61       57.99       
C           4.5         87.88       58.85       
C           5.57        88.58       59.43       
C           5.72        89.99       59.09       
C           4.83        90.67       58.27       
C           6.61        88.14       60.45       
C           7.5         89.36       60.54       
C           7.02        90.34       59.67       
C           2.84        90.41       56.59       
C           2.06        89.13       56.4        
C           2.53        88.12       57.27       
C           8.79        89.43       61.01       
C           9.6         90.47       60.65       
C           9.15        91.5        59.86       
C           7.88        91.49       59.37       
C           0.92        88.87       55.62       
C           0.24        87.58       55.75       
C           0.8         86.55       56.58       
C           1.97        86.83       57.32       
C           5.86        87.86       61.81       
C           7.61        87.04       59.96       
C           1.9         91.55       57.11       
C           3.67        90.92       55.32       
H           5.1         91.64       57.88       
H           4.41        86.82       59.03       
H           0.57        89.63       54.93       
H           2.33        86.22       58.13       
H           9.12        88.68       61.73       
H           7.52        92.29       58.73       
H           5.14        87.01       61.67       
H           6.55        87.43       62.55       
H           5.27392     88.71379    62.15007    
H           8.13        87.43       59.09       
H           8.39        86.94       60.63       
H           7.19714     86.04344    59.8034     
H           4.15        91.88       55.46       
H           4.59        90.3        55.45       
H           3.14677     90.86344    54.36547    
H           1.15        91.93       56.44       
H           2.47        92.4        57.25       
H           1.32577     91.34902    58.01441    
H           11.5        89.89       61.57       
H           -1.55       87.81       54.5        
S           10.45       92.62       59.45       
C           10.98       90.66       61.04       
C           11.58       91.67       60.34       
C           -4.41       83.15       53.68       
C           -3.57       83.86       52.82       
C           -4.14       83.32       55.03       
N           -3.58       83.68       51.5        
N           -1.96       85.45       52.39       
S           -2.52       84.74       50.96       
H           -3.02       84.22       56.58       
H           -4.67       82.64       55.73       
C           -3.1        84.19       55.52       
C           -2.63       84.87       53.35       
C           -2.31       84.99       54.75       
C           -18.69      74.88       51.82       
C           -18.42      75.99       51.07       
S           -17.17      74.33       52.51       
C           -13.08      79.07       51.1        
C           -13.01      77.76       51.64       
C           -11.84      77.21       52.21       
C           -10.73      77.99       52.28       
C           -10.8       79.32       51.92       
C           -11.95      79.85       51.28       
C           -9.35       77.55       52.64       
C           -8.69       78.93       52.77       
C           -9.53       79.98       52.26       
C           -14.45      79.35       50.48       
C           -15.19      78.04       50.85       
C           -14.27      77.15       51.5        
C           -7.41       79.17       53.18       
C           -6.92       80.48       53.08       
C           -7.8        81.5        52.7        
C           -9.09       81.24       52.19       
C           -16.52      77.7        50.58       
C           -17.07      76.51       51.17       
C           -16.23      75.65       51.83       
C           -14.88      75.93       52.01       
C           -9.28       76.78       53.92       
C           -8.74       76.81       51.46       
C           -15.05      80.61       51.19       
C           -14.17      79.58       48.96       
H           -12.01      80.87       50.91       
H           -11.8       76.25       52.65       
H           -17.16      78.26       49.95       
H           -14.3       75.12       52.53       
H           -6.73       78.43       53.6        
H           -9.64       82.05       51.73       
H           -8.33       76.31       53.94       
H           -9.95       75.95       53.77       
H           -9.63668    77.34649    54.78022    
H           -9.16       75.74       51.24       
H           -7.74       76.46       51.71       
H           -8.8609     77.35052    50.52121    
H           -13.7       80.56       48.75       
H           -13.51      78.87       48.59       
H           -14.99667   79.41609    48.26873    
H           -15.98      80.81       50.62       
H           -14.35      81.5        51.25       
H           -15.33223   80.47594    52.23426    
H           -5.03       80.21       54.0        
H           -19.22      76.5        50.49       
S           -6.89       83.03       52.59       
C           -5.63       80.94       53.54       
C           -5.46       82.27       53.3        
C           -22.12      72.49       53.13       
C           -22.32      73.59       52.21       
C           -20.88      72.42       53.67       
N           -23.52      73.98       51.72       
N           -21.71      75.33       50.75       
S           -23.28      74.98       50.47       
H           -18.9       72.93       53.57       
H           -20.72      71.86       54.61       
C           -19.84      73.24       53.18       
C           -21.26      74.45       51.69       
C           -19.92      74.21       52.14       
C           -33.12      60.84       58.36       
C           -33.33      61.61       57.22       
S           -31.63      61.37       59.15       
C           -29.45      66.02       55.31       
C           -29.03      65.2        56.39       
C           -27.81      65.5        57.02       
C           -26.99      66.45       56.46       
C           -27.45      67.3        55.4        
C           -28.71      67.12       54.86       
C           -25.5       66.65       56.71       
C           -25.25      67.99       55.94       
C           -26.45      68.34       55.17       
C           -30.8       65.45       54.8        
C           -31.05      64.25       55.76       
C           -30.0       64.16       56.73       
C           -24.09      68.72       55.83       
C           -24.03      69.8        55.01       
C           -25.19      70.14       54.32       
C           -26.43      69.51       54.4        
C           -32.15      63.39       55.83       
C           -32.24      62.54       56.91       
C           -31.15      62.51       57.88       
C           -30.04      63.24       57.76       
C           -25.28      66.82       58.27       
C           -24.73      65.46       56.18       
C           -31.93      66.43       54.88       
C           -30.61      64.83       53.37       
H           -29.09      67.82       54.12       
H           -27.53      64.96       57.9        
H           -32.88      63.34       55.06       
H           -29.28      63.16       58.57       
H           -23.25      68.48       56.47       
H           -27.3       69.86       53.88       
H           -24.19      66.84       58.48       
H           -25.67      66.02       58.81       
H           -25.64763   67.7571     58.68809    
H           -24.66      64.66       56.93       
H           -23.67      65.81       56.03       
H           -25.09701   65.12897    55.2085     
H           -31.09      65.53       52.71       
H           -30.98      63.79       53.3        
H           -29.56154   64.72301    53.09184    
H           -31.87      67.3        54.23       
H           -32.79      65.94       54.33       
H           -32.27357   66.80281    55.84492    
H           -21.93      70.47       55.08       
H           -34.16      61.65       56.53       
S           -24.78      71.53       53.36       
C           -22.89      70.62       54.68       
C           -23.14      71.66       53.81       
C           -35.86      57.81       60.13       
C           -34.59      58.16       60.77       
C           -36.03      58.41       58.94       
N           -34.27      57.75       62.05       
N           -32.54      59.25       61.05       
S           -32.82      58.36       62.39       
H           -35.37      59.86       57.44       
H           -36.95      58.18       58.4        
C           -35.1       59.42       58.42       
C           -33.62      59.08       60.2        
C           -33.89      59.77       58.98       
C           -47.93      49.02       67.67       
C           -47.06      49.82       68.33       
S           -47.33      48.76       66.06       
C           -42.66      53.1        65.57       
C           -43.36      52.18       64.76       
C           -43.15      52.18       63.37       
C           -42.2       53.03       62.79       
C           -41.4       53.75       63.67       
C           -41.63      53.84       65.08       
C           -42.0       53.38       61.34       
C           -40.73      54.16       61.43       
C           -40.46      54.41       62.81       
C           -43.27      53.17       66.99       
C           -44.28      52.0        66.94       
C           -44.34      51.49       65.57       
C           -39.9       54.73       60.43       
C           -38.77      55.49       60.76       
C           -38.53      55.68       62.17       
C           -39.29      55.1        63.27       
C           -45.12      51.44       67.93       
C           -46.08      50.48       67.5        
C           -46.15      50.03       66.17       
C           -45.37      50.57       65.17       
C           -41.81      52.16       60.46       
C           -43.09      54.3        60.74       
C           -42.14      52.97       68.11       
C           -43.79      54.67       67.08       
H           -40.93      54.36       65.73       
H           -43.77      51.59       62.74       
H           -45.05      51.77       68.92       
H           -45.59      50.33       64.13       
H           -40.07      54.5        59.33       
H           -39.03      55.26       64.29       
H           -42.58      51.38       60.61       
H           -41.91      52.44       59.47       
H           -40.85224   51.68477    60.67202    
H           -43.17      55.29       61.23       
H           -42.79      54.46       59.67       
H           -44.08048   53.85042    60.66975    
H           -43.03      55.43       66.93       
H           -44.14      54.85       68.09       
H           -44.62505   54.89774    66.41748    
H           -41.48      53.81       68.35       
H           -42.67      52.76       69.08       
H           -41.44611   52.146      67.94375    
H           -37.89      56.28       58.94       
H           -47.08      49.88       69.42       
S           -37.11      56.65       62.4        
C           -37.85      56.27       60.0        
C           -36.85      56.95       60.71       
C           -51.83      47.13       68.83       
C           -50.94      47.66       69.76       
C           -51.29      47.15       67.55       
N           -51.26      47.72       71.05       
N           -49.04      48.91       70.5        
S           -50.07      48.59       71.77       
H           -49.7       47.58       66.19       
H           -51.81      46.6        66.82       
C           -49.97      47.62       67.23       
C           -49.65      48.34       69.42       
C           -49.12      48.31       68.11       
C           -65.51      39.62       74.08       
C           -64.43      39.8        74.89       
S           -65.47      40.75       72.77       
C           -59.48      42.76       72.87       
C           -60.59      42.97       72.03       
C           -60.57      43.59       70.77       
C           -59.33      43.93       70.23       
C           -58.26      43.76       71.12       
C           -58.26      43.16       72.39       
C           -58.93      44.56       68.91       
C           -57.46      44.79       69.18       
C           -57.12      44.37       70.48       
C           -59.82      42.32       74.29       
C           -61.26      41.86       73.99       
C           -61.75      42.31       72.72       
C           -56.49      45.23       68.26       
C           -55.19      45.46       68.86       
C           -54.91      45.09       70.19       
C           -55.87      44.53       71.01       
C           -62.03      40.99       74.73       
C           -63.33      40.68       74.31       
C           -63.83      41.23       73.1        
C           -63.07      42.05       72.31       
C           -59.03      43.41       67.86       
C           -59.84      45.82       68.58       
C           -58.81      41.19       74.72       
C           -59.83      43.55       75.17       
H           -57.35      42.96       72.88       
H           -61.46      43.63       70.21       
H           -61.66      40.56       75.69       
H           -63.44      42.38       71.37       
H           -56.77      45.85       67.38       
H           -55.74      44.29       72.05       
H           -58.73      42.45       68.14       
H           -58.49      43.62       66.91       
H           -60.05086   43.20446    67.53798    
H           -60.87      45.48       68.63       
H           -59.61      46.11       67.56       
H           -59.74909   46.6452     69.28631    
H           -58.81      43.87       75.25       
H           -60.25      44.37       74.57       
H           -60.2992    43.48503    76.1517     
H           -59.06      40.73       75.64       
H           -57.86      41.7        74.93       
H           -58.65598   40.35387    74.0379     
H           -54.12      46.43       67.28       
H           -64.42      39.05       75.75       
S           -53.34      45.68       70.7        
C           -54.07      46.12       68.27       
C           -53.07      46.41       69.15       
C           -69.0       36.82       74.3        
C           -68.49      37.57       75.48       
C           -68.32      37.22       73.15       
N           -68.82      37.35       76.78       
N           -66.91      38.91       76.54       
S           -67.9       38.26       77.74       
H           -66.78      38.29       72.11       
H           -68.65      36.76       72.17       
C           -67.23      38.17       73.11       
C           -67.36      38.45       75.36       
C           -66.73      38.81       74.17       
H           93.52       69.29       17.39       
H           -69.49      35.92       74.35       
