612

C           41.38       27.74       99.34       
C           41.77       26.72       98.5        
S           40.94       29.11       98.38       
C           42.51       27.52       92.47       
C           42.02       28.66       93.19       
C           41.76       29.94       92.6        
C           41.97       30.02       91.28       
C           42.48       28.94       90.52       
C           42.69       27.65       91.1        
C           41.8        31.24       90.37       
C           42.05       30.69       89.03       
C           42.56       29.36       89.13       
C           42.92       26.4        93.46       
C           42.41       27.0        94.79       
C           42.04       28.35       94.62       
C           41.83       31.2        87.75       
C           42.18       30.41       86.65       
C           42.79       29.16       86.76       
C           42.96       28.54       87.96       
C           42.46       26.38       96.11       
C           41.97       27.15       97.2        
C           41.58       28.42       96.98       
C           41.64       29.08       95.74       
C           40.31       31.67       90.67       
C           42.76       32.45       90.67       
C           42.35       24.96       93.3        
C           44.45       26.46       93.71       
H           43.07       26.85       90.48       
H           41.19       30.73       93.09       
H           42.8        25.33       96.31       
H           41.28       30.12       95.68       
H           41.47       32.2        87.61       
H           43.34       27.54       88.08       
H           40.33       32.11       91.71       
H           39.69       30.82       90.75       
H           39.83995    32.3336     89.94419    
H           42.24       33.24       91.21       
H           43.08       32.91       89.67       
H           43.70577    32.14625    91.11872    
H           44.64       25.89       94.59       
H           44.77       27.45       93.88       
H           45.07298    26.03985    92.9204     
H           42.69       24.45       92.34       
H           42.79       24.28       94.02       
H           41.26217    24.89724    93.27211    
H           41.55       31.78       85.07       
H           42.08       25.75       98.93       
S           43.33       28.62       85.16       
C           42.03       30.83       85.3        
C           42.66       30.04       84.4        
C           39.77       27.92       103.5       
C           39.75       26.76       102.75      
C           40.47       28.93       102.81      
N           39.19       25.63       103.08      
N           40.23       25.39       100.8       
S           39.47       24.46       101.94      
H           41.37       29.74       101.13      
H           40.45       29.93       103.35      
C           40.97       28.85       101.48      
C           40.29       26.63       101.4       
C           40.89       27.76       100.75      
C           39.68       32.69       118.92      
C           39.75       33.58       117.89      
S           38.95       31.17       118.48      
C           38.14       31.93       112.25      
C           37.87       30.95       113.19      
C           37.48       29.66       112.76      
C           37.56       29.3        111.47      
C           37.94       30.33       110.52      
C           38.25       31.64       110.86      
C           37.38       27.91       110.79      
C           37.7        28.28       109.37      
C           38.02       29.67       109.22      
C           38.53       33.26       112.89      
C           38.67       32.88       114.33      
C           38.16       31.54       114.51      
C           37.86       27.41       108.32      
C           38.36       27.87       107.04      
C           38.48       29.27       106.89      
C           38.32       30.19       107.94      
C           39.22       33.65       115.35      
C           39.25       33.11       116.65      
C           38.76       31.79       116.84      
C           38.23       31.02       115.78      
C           38.44       26.94       111.2       
C           35.97       27.25       110.84      
C           39.87       33.86       112.38      
C           37.33       34.27       112.84      
H           38.65       32.35       110.14      
H           37.29       28.93       113.53      
H           39.64       34.6        115.17      
H           37.91       30.01       115.99      
H           37.65       26.31       108.41      
H           38.36       31.28       107.77      
H           38.35       26.84       112.26      
H           38.3        25.97       110.76      
H           39.44514    27.31433    111.0059    
H           35.32       27.95       110.25      
H           36.03       26.3        110.3       
H           35.50851    27.30594    111.8259    
H           37.56       35.28       113.22      
H           36.5        33.97       113.47      
H           36.88549    34.43934    111.85927   
H           39.66       33.94       111.33      
H           40.13       34.87       112.66      
H           40.74682    33.21507    112.43797   
H           38.79       26.24       105.64      
H           40.21       34.54       118.03      
S           39.05       29.8        105.32      
C           38.86       27.28       105.83      
C           39.25       28.13       104.85      
C           41.03       33.26       123.11      
C           40.3        34.29       122.43      
C           41.21       32.14       122.32      
N           40.05       35.48       123.06      
N           39.18       35.26       120.71      
S           39.17       36.31       121.99      
H           40.8        31.0        120.51      
H           41.73       31.24       122.77      
C           40.68       31.93       121.03      
C           39.82       34.12       121.06      
C           39.96       32.88       120.36      
C           49.27       31.79       137.22      
C           48.15       31.01       136.88      
S           49.47       33.2        136.13      
C           44.68       32.21       132.14      
C           45.62       33.27       132.41      
C           45.61       34.41       131.63      
C           44.92       34.5        130.44      
C           44.1        33.42       130.19      
C           43.96       32.31       131.01      
C           44.89       35.6        129.38      
C           43.93       34.84       128.37      
C           43.58       33.56       128.85      
C           44.86       30.95       133.05      
C           45.86       31.57       134.03      
C           46.36       32.86       133.6       
C           43.56       35.33       127.16      
C           42.86       34.36       126.32      
C           42.39       33.12       126.83      
C           42.76       32.73       128.11      
C           46.39       30.96       135.11      
C           47.49       31.52       135.7       
C           48.08       32.69       135.2       
C           47.49       33.45       134.19      
C           44.37       36.91       130.11      
C           46.24       35.82       128.61      
C           43.48       30.66       133.78      
C           45.57       29.7        132.43      
H           43.24       31.54       130.76      
H           46.24       35.3        131.92      
H           45.86       30.04       135.48      
H           47.98       34.33       133.81      
H           43.81       36.31       126.84      
H           42.43       31.78       128.42      
H           44.52       37.83       129.54      
H           44.95       37.19       131.0       
H           43.35091    36.81294    130.48436   
H           47.05       36.16       129.29      
H           46.03       36.55       127.91      
H           46.63123    34.86682    128.25434   
H           45.81       29.04       133.21      
H           46.48       29.96       131.9       
H           44.94596    29.10369    131.76435   
H           42.62       30.22       133.28      
H           43.71       29.9        134.55      
H           43.06246    31.57294    134.20462   
H           42.51       35.31       124.36      
H           47.77       30.18       137.44      
S           41.5        32.17       125.63      
C           42.36       34.44       124.96      
C           41.73       33.36       124.38      
C           52.14       31.21       140.57      
C           50.76       31.0        140.72      
C           52.52       31.53       139.24      
N           50.07       30.68       141.89      
N           48.54       31.15       140.0       
S           48.44       30.63       141.52      
H           51.96       32.21       137.29      
H           53.59       31.68       139.06      
C           51.55       31.79       138.22      
C           49.8        31.32       139.63      
C           50.18       31.6        138.3       
C           59.1        28.95       155.21      
C           58.35       30.06       154.98      
S           59.56       28.19       153.69      
C           56.47       31.5        149.27      
C           57.55       30.56       149.38      
C           57.97       29.81       148.32      
C           57.37       30.01       147.06      
C           56.31       30.91       147.0       
C           55.82       31.62       148.05      
C           57.53       29.23       145.69      
C           56.45       29.95       144.88      
C           55.69       30.83       145.71      
C           56.17       32.05       150.69      
C           57.3        31.43       151.52      
C           57.86       30.36       150.77      
C           55.94       29.7        143.55      
C           54.88       30.41       143.07      
C           54.18       31.3        143.97      
C           54.59       31.5        145.26      
C           57.48       31.43       152.96      
C           58.16       30.37       153.57      
C           58.74       29.39       152.75      
C           58.61       29.35       151.36      
C           58.84       29.6        144.92      
C           57.27       27.69       145.71      
C           56.42       33.58       150.74      
C           54.73       31.65       151.11      
H           55.05       32.39       147.95      
H           58.74       29.13       148.5       
H           56.86       32.03       153.63      
H           59.0        28.53       150.74      
H           56.41       29.07       142.81      
H           54.1        32.13       145.98      
H           59.62       29.05       145.38      
H           58.83       29.31       143.92      
H           59.07027    30.66501    144.89122   
H           56.27       27.58       145.83      
H           57.43       27.18       144.79      
H           57.78999    27.11874    146.479     
H           54.45       32.27       151.95      
H           54.78       30.59       151.57      
H           53.90815    31.9171     150.44567   
H           55.77       34.11       150.05      
H           56.11       34.02       151.7       
H           57.45219    33.80856    150.47458   
H           54.52       29.65       141.04      
H           57.91       30.64       155.8       
S           52.87       32.13       143.11      
C           54.23       30.38       141.8       
C           53.13       31.18       141.68      
C           59.74       26.76       158.91      
C           59.81       28.23       158.89      
C           59.63       26.11       157.73      
N           60.08       29.12       159.91      
N           59.39       30.33       157.73      
S           59.79       30.56       159.32      
H           59.52       26.25       155.54      
H           59.52       25.03       157.66      
C           59.55       26.86       156.5       
C           59.56       28.95       157.62      
C           59.47       28.29       156.42      
C           58.4        17.9        172.79      
C           57.73       17.54       171.68      
S           59.27       19.4        172.68      
C           57.99       20.99       166.71      
C           58.51       21.59       167.89      
C           59.15       22.87       167.87      
C           59.25       23.52       166.67      
C           58.68       22.89       165.48      
C           57.96       21.71       165.53      
C           60.25       24.6        166.18      
C           59.89       24.79       164.72      
C           58.96       23.74       164.34      
C           57.47       19.56       166.96      
C           57.59       19.54       168.43      
C           58.27       20.68       168.93      
C           60.44       25.67       163.77      
C           60.05       25.49       162.42      
C           59.12       24.48       162.06      
C           58.63       23.57       162.99      
C           57.38       18.54       169.29      
C           57.86       18.5        170.64      
C           58.61       19.61       171.07      
C           58.82       20.7        170.26      
C           60.07       25.94       166.9       
C           61.64       23.99       166.4       
C           56.05       19.7        166.38      
C           58.25       18.5        166.13      
H           57.45       21.26       164.7       
H           59.59       23.31       168.79      
H           56.92       17.62       168.95      
H           59.34       21.54       170.59      
H           61.14       26.46       164.11      
H           57.97       22.69       162.7       
H           60.24       25.79       167.96      
H           60.85       26.61       166.62      
H           59.06766    26.36353    166.83647   
H           61.74       23.74       167.44      
H           62.41       24.75       166.21      
H           61.81245    23.14156    165.7378    
H           57.84       18.49       165.1       
H           57.95       17.52       166.6       
H           59.32371    18.68128    166.17881   
H           56.01       19.67       165.28      
H           55.65       20.64       166.74      
H           55.32527    18.94657    166.68855   
H           61.0        27.27       161.35      
H           57.17       16.58       171.68      
S           58.82       24.53       160.31      
C           60.48       26.31       161.33      
C           59.8        25.98       160.11      
C           58.27       16.82       177.01      
C           57.11       16.58       176.18      
C           59.32       17.29       176.33      
N           55.89       16.22       176.67      
N           55.9        16.72       174.18      
S           54.86       16.16       175.4       
H           60.37       17.87       174.53      
H           60.29       17.44       176.78      
C           59.38       17.54       174.93      
C           57.14       16.85       174.72      
C           58.35       17.34       174.09      
C           60.5        15.33       193.49      
C           61.48       15.85       192.69      
S           59.08       14.93       192.57      
C           60.82       16.8        186.64      
C           59.81       16.01       187.32      
C           58.69       15.52       186.66      
C           58.63       15.67       185.33      
C           59.69       16.28       184.58      
C           60.8        16.9        185.26      
C           57.54       15.14       184.37      
C           58.1        15.49       183.03      
C           59.29       16.23       183.1       
C           61.95       17.17       187.61      
C           61.47       16.54       188.93      
C           60.22       15.94       188.75      
C           57.52       15.29       181.81      
C           58.01       15.91       180.64      
C           59.22       16.6        180.74      
C           59.89       16.79       181.97      
C           61.95       16.43       190.21      
C           61.18       15.94       191.31      
C           59.91       15.47       191.11      
C           59.4        15.43       189.78      
C           57.43       13.63       184.63      
C           56.19       15.79       184.72      
C           63.27       16.46       187.19      
C           62.07       18.74       187.84      
H           61.45       17.47       184.69      
H           57.86       15.0        187.25      
H           62.87       16.91       190.51      
H           58.32       15.13       189.66      
H           56.65       14.7        181.73      
H           60.77       17.39       181.99      
H           57.13       13.37       185.65      
H           56.59       13.2        183.98      
H           58.39433    13.14064    184.49327   
H           55.79       15.38       185.65      
H           55.49       15.63       183.95      
H           56.24858    16.86644    184.8811    
H           62.63       18.98       188.82      
H           61.15       19.1        188.1       
H           62.45508    19.31399    186.99718   
H           63.54       16.78       186.16      
H           64.13       16.72       187.79      
H           63.20432    15.37259    187.22649   
H           56.55       15.7        178.99      
H           62.43       16.08       193.13      
S           59.75       17.34       179.21      
C           57.52       16.04       179.24      
C           58.37       16.63       178.41      
C           60.29       14.71       197.79      
C           61.39       15.38       197.21      
C           59.41       14.18       196.88      
N           62.44       15.84       197.92      
N           62.62       16.33       195.55      
S           63.42       16.65       196.88      
H           58.69       14.02       194.86      
H           58.53       13.62       197.24      
C           59.44       14.49       195.5       
C           61.52       15.61       195.83      
C           60.51       15.19       194.92      
C           63.35       13.58       214.08      
C           62.52       14.56       213.52      
S           63.55       12.34       212.92      
C           60.43       14.68       207.79      
C           61.21       13.53       208.21      
C           61.66       12.61       207.26      
C           61.47       12.87       205.92      
C           60.77       14.05       205.49      
C           60.22       14.88       206.44      
C           61.92       12.08       204.71      
C           61.55       13.0        203.56      
C           60.67       13.98       204.03      
C           60.43       15.66       208.98      
C           61.03       14.86       210.11      
C           61.5        13.6        209.62      
C           61.77       12.77       202.22      
C           60.98       13.43       201.28      
C           60.07       14.41       201.73      
C           59.92       14.71       203.13      
C           61.16       15.19       211.41      
C           62.06       14.36       212.18      
C           62.52       13.13       211.73      
C           62.27       12.78       210.44      
C           63.45       11.9        204.63      
C           61.13       10.8        204.48      
C           61.19       16.98       208.57      
C           58.98       15.93       209.41      
H           59.66       15.82       206.15      
H           62.11       11.68       207.59      
H           60.98       16.18       211.79      
H           62.8        11.88       210.12      
H           62.58       12.12       201.85      
H           59.23       15.41       203.46      
H           63.79       11.31       205.47      
H           63.71       11.34       203.68      
H           63.95878    12.85483    204.49758   
H           60.16       11.09       204.16      
H           61.48       10.09       203.73      
H           61.10824    10.12543    205.33591   
H           58.97       16.66       210.2       
H           58.58       14.94       209.68      
H           58.28149    16.27573    208.64799   
H           60.91       17.76       209.22      
H           61.01       17.26       207.45      
H           62.25012    16.80809    208.75624   
H           62.03       12.94       199.35      
H           62.19       15.4        214.06      
S           59.25       15.09       200.36      
C           61.17       13.42       199.85      
C           60.37       14.3        199.22      
C           65.49       12.92       217.87      
C           64.38       13.68       217.85      
C           65.88       12.47       216.67      
N           63.9        14.23       218.99      
N           62.41       14.6        216.99      
S           62.44       14.88       218.63      
H           65.62       12.5        214.57      
H           66.81       12.03       216.48      
C           65.09       12.7        215.46      
C           63.52       13.87       216.68      
C           63.91       13.36       215.4       
C           76.72       9.55        229.63      
C           76.87       9.39        228.29      
S           75.01       10.08       230.03      
C           72.98       11.05       224.05      
C           72.44       11.03       225.37      
C           71.15       11.46       225.65      
C           70.31       11.64       224.57      
C           70.79       11.69       223.25      
C           72.12       11.43       222.97      
C           68.8        11.94       224.62      
C           68.49       12.14       223.15      
C           69.64       11.98       222.38      
C           74.41       10.57       223.96      
C           74.58       10.16       225.46      
C           73.46       10.64       226.31      
C           67.26       12.48       222.59      
C           67.23       12.6        221.23      
C           68.39       12.42       220.44      
C           69.64       12.16       221.02      
C           75.61       9.54        226.1       
C           75.78       9.67        227.52      
C           74.69       10.12       228.34      
C           73.46       10.54       227.69      
C           67.99       10.78       225.25      
C           68.5        13.31       225.32      
C           74.56       9.34        223.04      
C           75.41       11.74       223.68      
H           72.53       11.55       221.94      
H           70.88       11.37       226.72      
H           76.45       9.14        225.47      
H           72.58       10.7        228.31      
H           66.38       12.77       223.14      
H           70.61       12.08       220.46      
H           67.17       11.08       225.85      
H           68.65       10.23       225.85      
H           67.77935    9.97952     224.5408    
H           69.34       13.97       224.97      
H           67.52       13.68       225.11      
H           68.60825    13.24234    226.4025    
H           76.53       11.45       223.62      
H           75.43       12.4        224.48      
H           75.2652     12.283      222.74604   
H           74.31       9.52        221.99      
H           75.49       8.78        222.88      
H           73.85414    8.56932     223.34971   
H           65.14       12.98       220.72      
H           77.78       8.99        227.95      
S           68.07       12.7        218.76      
C           66.09       12.84       220.38      
C           66.35       12.72       219.04      
C           79.61       8.89        232.78      
C           79.74       8.14        231.58      
C           78.52       9.77        232.89      
N           80.68       7.32        231.11      
N           78.82       7.34        229.51      
S           80.17       6.49        229.85      
H           76.73       10.51       232.06      
H           78.51       10.51       233.68      
C           77.53       9.81        231.91      
C           78.6        8.16        230.6       
C           77.55       9.12        230.73      
C           88.64       10.79       246.8       
C           87.31       11.13       246.68      
S           89.36       10.28       245.32      
C           84.17       9.93        241.51      
C           85.56       9.61        241.46      
C           86.08       9.16        240.25      
C           85.27       8.97        239.11      
C           83.87       9.3         239.2       
C           83.32       9.8         240.43      
C           85.54       8.26        237.73      
C           84.29       8.69        236.97      
C           83.29       9.12        237.9       
C           83.8        10.45       242.89      
C           85.16       10.39       243.61      
C           86.19       10.01       242.72      
C           83.97       8.43        235.64      
C           82.68       8.68        235.14      
C           81.7        9.17        236.09      
C           82.01       9.37        237.5       
C           85.46       10.77       244.94      
C           86.78       10.73       245.4       
C           87.79       10.22       244.55      
C           87.53       9.85        243.15      
C           86.77       8.95        237.12      
C           85.66       6.71        237.76      
C           83.01       11.76       242.82      
C           82.92       9.47        243.69      
H           82.27       9.98        240.39      
H           87.13       9.18        240.16      
H           84.74       11.08       245.67      
H           88.3        9.63        242.43      
H           84.72       8.05        234.9       
H           81.26       9.67        238.2       
H           87.57       8.75        237.79      
H           87.19       8.52        236.21      
H           86.63229    10.02414    236.99606   
H           84.73       6.35        238.25      
H           85.72       6.28        236.7       
H           86.49618    6.36159     238.36623   
H           81.96       9.91        243.81      
H           83.45       9.2         244.59      
H           82.65731    8.53994     243.18592   
H           82.01       11.58       242.32      
H           82.83       12.08       243.81      
H           83.56562    12.53922    242.29826   
H           82.44       7.96        232.93      
H           86.67       11.47       247.49      
S           80.13       9.42        235.37      
C           82.01       8.48        233.83      
C           80.69       8.87        233.82      
C           91.16       11.07       250.34      
C           89.82       11.7        250.4       
C           91.55       10.52       249.16      
N           89.24       12.13       251.47      
N           87.77       12.01       249.59      
S           87.68       12.18       251.22      
H           91.2        10.16       247.24      
H           92.57       10.09       248.96      
C           90.74       10.61       248.07      
C           89.01       11.68       249.22      
C           89.49       11.06       247.97      
C           103.61      12.15       260.88      
C           103.67      11.58       259.59      
S           101.96      12.08       261.53      
C           98.66       10.28       256.51      
C           98.36       10.66       257.84      
C           97.0        10.83       258.17      
C           95.96       10.67       257.23      
C           96.34       10.41       255.9       
C           97.65       10.18       255.57      
C           94.49       11.11       257.24      
C           94.05       10.73       255.8       
C           95.2        10.47       255.07      
C           100.11      10.27       256.17      
C           100.68      10.63       257.52      
C           99.69       10.86       258.49      
C           92.84       10.99       255.15      
C           92.81       10.92       253.74      
C           93.98       10.5        253.0       
C           95.16       10.21       253.69      
C           102.03      10.69       257.86      
C           102.38      11.15       259.12      
C           101.33      11.34       260.11      
C           99.97       11.07       259.8       
C           93.7        10.17       258.24      
C           94.22       12.69       257.43      
C           100.54      8.88        255.65      
C           100.38      11.41       255.14      
H           97.94       10.03       254.49      
H           96.74       11.09       259.14      
H           102.72      10.27       257.14      
H           99.19       11.24       260.54      
H           92.0        11.24       255.76      
H           96.06       10.05       253.16      
H           94.25       10.08       259.21      
H           93.67       9.19        257.8       
H           92.64252    10.3533     258.43035   
H           94.65       13.3        256.57      
H           93.11       12.9        257.17      
H           94.48787    13.13411    258.3887    
H           99.63       11.61       254.37      
H           100.24      12.34       255.67      
H           101.39611   11.49409    254.75458   
H           101.45      8.94        255.17      
H           99.83       8.54        254.78      
H           100.56891   8.14274     256.45231   
H           90.69       11.41       253.31      
H           104.53      11.66       258.88      
S           93.73       10.63       251.29      
C           91.7        11.16       252.88      
C           92.04       11.01       251.49      
C           106.7       13.77       263.42      
C           106.98      13.54       262.1       
C           105.57      13.25       263.9       
N           108.07      13.84       261.41      
N           106.43      12.73       260.0       
S           108.03      13.16       259.94      
H           103.65      12.33       263.52      
H           105.33      13.42       264.92      
C           104.53      12.74       263.1       
C           106.04      12.92       261.27      
C           104.7       12.66       261.72      
H           42.67       30.28       83.34       
H           107.1       14.63       263.92      
