612

C           49.66       67.79       90.1        
C           49.82       68.39       91.3        
S           47.96       67.25       89.89       
C           45.09       69.74       95.06       
C           44.73       69.11       93.82       
C           43.39       68.72       93.55       
C           42.44       68.88       94.54       
C           42.75       69.61       95.75       
C           44.03       70.07       96.01       
C           41.04       68.28       94.62       
C           40.46       68.97       95.92       
C           41.54       69.68       96.57       
C           46.59       69.95       95.11       
C           47.09       69.38       93.8        
C           45.98       68.71       93.06       
C           39.26       68.84       96.48       
C           39.07       69.43       97.71       
C           40.04       70.14       98.4        
C           41.32       70.34       97.86       
C           48.38       69.29       93.27       
C           48.59       68.66       92.01       
C           47.5        67.99       91.37       
C           46.19       67.87       91.94       
C           40.19       68.53       93.35       
C           41.21       66.73       94.91       
C           47.11       71.37       95.43       
C           47.33       69.07       96.16       
H           44.21       70.66       96.94       
H           43.14       68.24       92.63       
H           49.22       69.55       93.84       
H           45.37       67.39       91.35       
H           38.41       68.22       96.05       
H           42.09       70.9        98.33       
H           40.7        68.03       92.47       
H           39.12       68.16       93.4        
H           40.07097    69.59428    93.14695    
H           41.97       66.64       95.66       
H           40.33       66.4        95.4        
H           41.57049    66.15461    94.05731    
H           47.25       69.54       97.13       
H           48.34       68.95       95.93       
H           46.95702    68.05147    96.26759    
H           46.8        71.69       96.38       
H           48.25       71.28       95.48       
H           46.83486    72.11579    94.68421    
H           36.96       68.91       98.02       
H           50.78       68.76       91.63       
S           39.36       70.92       99.82       
C           37.81       69.51       98.35       
C           37.79       70.24       99.48       
C           52.26       67.0        86.61       
C           52.79       67.76       87.74       
C           51.02       66.65       86.76       
N           54.06       68.2        87.95       
N           52.49       68.75       89.87       
S           54.05       68.96       89.38       
H           49.04       66.75       87.71       
H           50.51       66.07       85.97       
C           50.12       67.02       87.77       
C           51.92       68.06       88.93       
C           50.57       67.61       88.91       
C           62.3        59.84       75.2        
C           60.94       59.79       75.0        
S           62.74       60.98       76.44       
C           57.17       62.24       79.17       
C           58.51       62.58       79.3        
C           58.86       63.53       80.2        
C           57.89       64.21       80.97       
C           56.53       63.77       80.96       
C           56.23       62.69       80.11       
C           58.1        65.33       81.98       
C           56.67       65.49       82.49       
C           55.76       64.57       81.95       
C           56.9        61.33       77.89       
C           58.34       61.12       77.45       
C           59.29       61.79       78.34       
C           56.31       66.3        83.58       
C           54.99       66.23       84.05       
C           54.03       65.34       83.41       
C           54.43       64.49       82.41       
C           58.88       60.5        76.34       
C           60.23       60.48       76.08       
C           61.04       61.14       76.95       
C           60.61       61.76       78.14       
C           59.12       64.88       83.03       
C           58.57       66.69       81.35       
C           56.26       59.91       78.17       
C           56.24       62.1        76.69       
H           55.21       62.27       80.04       
H           59.88       63.89       80.18       
H           58.21       60.04       75.68       
H           61.36       62.29       78.74       
H           57.06       67.02       84.04       
H           53.74       63.73       82.05       
H           59.42       65.66       83.69       
H           60.09       64.68       82.55       
H           58.67531    64.09484    83.64145    
H           59.5        66.43       80.84       
H           58.87       67.35       82.18       
H           57.91773    67.15793    80.61265    
H           56.4        61.58       75.72       
H           56.81       63.02       76.58       
H           55.19799    62.35327    76.88538    
H           55.18       59.92       78.43       
H           56.34       59.32       77.22       
H           56.79327    59.41883    78.98393    
H           54.98       67.71       85.7        
H           60.51       59.26       74.2        
S           52.5        65.42       84.34       
C           54.42       66.96       85.15       
C           53.1        66.6        85.48       
C           65.29       58.01       72.45       
C           65.62       58.29       73.83       
C           64.02       58.28       72.11       
N           66.83       58.15       74.36       
N           65.09       59.04       75.95       
S           66.63       58.43       76.01       
H           62.1        58.89       72.65       
H           63.69       58.18       71.13       
C           63.07       58.77       73.03       
C           64.69       59.0        74.69       
C           63.3        59.21       74.35       
C           73.36       47.4        64.2        
C           72.04       47.71       63.99       
S           74.18       48.81       64.87       
C           69.61       53.19       65.28       
C           70.95       52.95       65.6        
C           71.63       53.69       66.62       
C           70.81       54.52       67.39       
C           69.47       54.68       67.02       
C           68.88       54.16       65.9        
C           71.27       55.38       68.61       
C           69.88       55.92       69.04       
C           68.86       55.57       68.03       
C           69.04       51.89       64.56       
C           70.32       51.02       64.42       
C           71.43       51.72       65.0        
C           69.6        56.67       70.11       
C           68.26       57.01       70.28       
C           67.24       56.63       69.36       
C           67.53       55.92       68.17       
C           70.44       49.69       64.12       
C           71.72       49.1        64.24       
C           72.79       49.88       64.65       
C           72.69       51.18       65.15       
C           71.79       54.4        69.72       
C           72.28       56.56       68.31       
C           68.01       51.2        65.49       
C           68.48       52.26       63.15       
H           67.82       54.19       65.68       
H           72.67       53.41       66.88       
H           69.64       49.1        63.73       
H           73.58       51.66       65.59       
H           70.25       56.78       70.94       
H           66.66       55.57       67.53       
H           72.76       53.98       69.36       
H           71.99       54.95       70.61       
H           71.12748    53.53801    69.79836    
H           71.88       57.12       67.5        
H           72.17       57.24       69.14       
H           73.29396    56.26305    68.04203    
H           67.56       52.64       63.44       
H           68.42       51.4        62.42       
H           69.11916    53.03964    62.7356     
H           67.36       51.96       65.95       
H           67.33       50.62       64.93       
H           68.41096    50.60949    66.31379    
H           68.19       57.54       72.42       
H           71.35       46.93       63.62       
S           65.72       57.2        69.91       
C           67.64       57.47       71.53       
C           66.31       57.66       71.47       
C           75.89       43.78       64.24       
C           74.41       43.64       64.14       
C           76.35       45.05       64.1        
N           73.76       42.46       64.1        
N           72.32       44.47       63.84       
S           72.18       42.81       63.86       
H           75.94       47.12       64.0        
H           77.4        45.31       64.24       
C           75.46       46.19       64.04       
C           73.54       44.78       63.93       
C           74.1        46.16       64.1        
C           87.27       32.8        69.82       
C           87.54       33.98       69.17       
S           85.5        32.75       70.12       
C           83.26       37.97       67.14       
C           82.74       36.9        67.91       
C           81.31       36.69       68.03       
C           80.55       37.63       67.4        
C           81.1        38.67       66.65       
C           82.45       38.94       66.53       
C           78.98       37.6        67.27       
C           78.78       38.8        66.41       
C           79.96       39.52       66.13       
C           84.76       37.75       66.84       
C           85.08       36.63       67.82       
C           83.87       36.02       68.27       
C           77.54       39.31       65.93       
C           77.49       40.63       65.38       
C           78.72       41.26       65.06       
C           79.95       40.67       65.4        
C           86.31       36.01       68.05       
C           86.38       34.8        68.83       
C           85.18       34.22       69.25       
C           83.96       34.83       68.99       
C           78.58       36.34       66.56       
C           78.39       37.76       68.72       
C           85.07       37.36       65.36       
C           85.67       38.94       67.32       
H           82.92       39.68       65.93       
H           80.97       35.82       68.64       
H           87.24       36.48       67.75       
H           83.01       34.5        69.48       
H           76.59       38.75       66.08       
H           80.86       41.15       65.06       
H           79.13       35.59       67.12       
H           78.94       36.34       65.5        
H           77.50356    36.21881    66.43881    
H           78.81       38.62       69.14       
H           77.36       37.83       68.62       
H           78.48644    36.92649    69.41574    
H           86.7        38.73       67.21       
H           85.47       39.07       68.38       
H           85.55854    39.90131    66.81845    
H           84.84       38.16       64.74       
H           86.12       37.1        65.19       
H           84.55662    36.47585    64.9821     
H           75.38       41.0        65.13       
H           88.61       34.19       68.96       
S           78.49       42.84       64.29       
C           76.37       41.37       64.98       
C           76.75       42.68       64.59       
C           89.58       29.41       71.18       
C           90.22       30.72       71.06       
C           88.22       29.41       71.09       
N           91.53       31.02       71.24       
N           90.17       33.02       70.61       
S           91.73       32.63       71.06       
H           86.43       30.35       70.37       
H           87.68       28.41       71.11       
C           87.48       30.54       70.6        
C           89.41       31.89       70.67       
C           88.03       31.74       70.41       
C           98.7        16.73       76.94       
C           98.85       18.08       77.11       
S           97.47       16.46       75.68       
C           95.56       22.57       74.85       
C           95.33       21.33       74.23       
C           94.46       21.23       73.16       
C           93.76       22.31       72.65       
C           93.87       23.5        73.4        
C           94.72       23.65       74.53       
C           92.65       22.54       71.55       
C           92.11       23.94       71.96       
C           92.83       24.48       73.03       
C           96.54       22.44       76.05       
C           96.99       20.98       75.81       
C           96.15       20.28       74.88       
C           91.17       24.74       71.22       
C           91.0        26.04       71.69       
C           91.69       26.53       72.84       
C           92.68       25.81       73.48       
C           97.84       20.24       76.56       
C           97.88       18.85       76.44       
C           97.07       18.18       75.5        
C           96.21       18.92       74.64       
C           93.23       22.66       70.17       
C           91.39       21.52       71.73       
C           97.71       23.36       75.84       
C           95.77       22.65       77.39       
H           94.83       24.61       75.01       
H           94.24       20.22       72.73       
H           98.56       20.75       77.11       
H           95.53       18.44       74.0        
H           90.64       24.36       70.35       
H           93.18       26.28       74.3        
H           93.83       21.75       69.8        
H           92.38       22.86       69.49       
H           93.96043    23.46347    70.07504    
H           91.2        21.35       72.81       
H           90.43       21.97       71.35       
H           91.5075     20.57998    71.19087    
H           96.17       22.17       78.28       
H           94.77       22.27       77.3        
H           95.535      23.68969    77.61788    
H           97.46       24.39       76.14       
H           98.52       23.16       76.52       
H           98.03789    23.36698    74.80051    
H           89.7        26.85       70.14       
H           99.65       18.49       77.76       
S           91.28       28.25       73.05       
C           90.18       27.04       71.09       
C           90.26       28.26       71.65       
C           101.75      13.7        77.5        
C           100.39      13.32       77.36       
C           101.92      15.06       77.7        
N           99.94       12.08       77.46       
N           98.05       13.83       77.07       
S           98.31       12.19       77.2        
H           101.31      17.07       77.47       
H           102.92      15.37       77.75       
C           100.95      16.04       77.55       
C           99.32       14.29       77.22       
C           99.63       15.69       77.25       
C           117.31      8.08        75.92       
C           116.91      9.26        76.54       
S           115.92      7.1         75.47       
C           111.08      10.91       77.11       
C           111.26      9.69        76.37       
C           110.1       9.06        75.97       
C           108.84      9.51        76.35       
C           108.75      10.58       77.2        
C           109.88      11.28       77.53       
C           107.49      8.79        76.17       
C           106.56      9.92        76.65       
C           107.31      10.88       77.41       
C           112.47      11.59       77.38       
C           113.43      10.66       76.64       
C           112.7       9.58        76.1        
C           105.19      10.13       76.52       
C           104.56      11.28       77.1        
C           105.34      12.23       77.87       
C           106.72      11.94       78.1        
C           114.78      10.67       76.79       
C           115.49      9.51        76.48       
C           114.79      8.44        75.81       
C           113.44      8.49        75.53       
C           107.37      8.42        74.67       
C           107.16      7.55        77.06       
C           112.56      13.0        76.82       
C           112.61      11.59       78.85       
H           109.81      12.26       78.09       
H           110.21      8.13        75.39       
H           115.23      11.54       77.29       
H           112.94      7.62        75.07       
H           104.55      9.38        76.09       
H           107.44      12.59       78.59       
H           108.15      7.82        74.28       
H           106.35      7.96        74.56       
H           107.34841   9.29096     74.01498    
H           106.55      7.91        77.94       
H           106.51      6.88        76.48       
H           108.01111   6.948       77.3783     
H           111.85      12.19       79.35       
H           113.6       12.07       79.09       
H           112.74175   10.57992    79.23793    
H           111.81      13.61       77.28       
H           113.62      13.42       76.88       
H           112.28006   13.0        75.76656    
H           102.47      11.16       76.38       
H           117.65      9.91        76.98       
S           104.31      13.46       78.54       
C           103.22      11.69       76.95       
C           102.95      12.85       77.62       
C           120.78      5.46        76.26       
C           120.16      5.72        75.06       
C           120.38      6.3         77.29       
N           120.35      4.94        73.96       
N           118.44      6.53        73.68       
S           119.18      5.29        72.89       
H           118.89      7.63        78.03       
H           120.64      6.06        78.27       
C           119.32      7.26        77.11       
C           119.05      6.66        74.89       
C           118.63      7.49        75.94       
C           123.93      -8.23       84.44       
C           124.29      -6.99       84.97       
S           123.51      -8.05       82.76       
C           123.84      -1.94       81.76       
C           123.74      -3.12       81.02       
C           123.59      -3.15       79.62       
C           123.39      -1.95       78.9        
C           123.63      -0.8        79.63       
C           123.84      -0.75       81.01       
C           122.96      -1.73       77.43       
C           123.08      -0.16       77.45       
C           123.43      0.31        78.75       
C           124.04      -2.16       83.27       
C           124.12      -3.67       83.24       
C           123.74      -4.19       81.94       
C           122.72      0.78        76.5        
C           122.49      2.09        76.83       
C           122.69      2.54        78.15       
C           123.18      1.62        79.09       
C           124.23      -4.54       84.35       
C           124.13      -5.94       84.08       
C           123.65      -6.35       82.81       
C           123.49      -5.5        81.76       
C           124.05      -2.3        76.44       
C           121.54      -2.2        77.21       
C           125.35      -1.42       83.57       
C           122.78      -1.77       84.14       
H           123.93      0.2         81.51       
H           123.45      -4.1        79.12       
H           124.46      -4.19       85.33       
H           123.22      -5.87       80.75       
H           122.39      0.45        75.51       
H           123.34      1.96        80.13       
H           124.2       -3.41       76.47       
H           123.6       -2.04       75.48       
H           124.9836    -1.75297    76.57129    
H           120.88      -1.74       77.94       
H           121.06      -1.88       76.28       
H           121.44116   -3.26603    77.41473    
H           122.72      -0.71       84.24       
H           122.88      -2.2        85.16       
H           121.85371   -2.06251    83.64551    
H           125.12      -0.39       83.59       
H           126.04      -1.71       82.83       
H           125.76754   -1.55446    84.56784    
H           121.66      2.95        74.98       
H           124.77      -6.95       85.91       
S           122.23      4.19        78.31       
C           121.87      3.15        76.02       
C           121.65      4.3         76.65       
C           124.01      -12.5       86.04       
C           124.56      -11.37      86.73       
C           123.51      -12.06      84.81       
N           125.06      -11.41      87.98       
N           125.19      -9.13       87.07       
S           125.71      -9.99       88.46       
H           122.98      -10.52      83.32       
H           123.06      -12.87      84.21       
C           123.48      -10.75      84.34       
C           124.54      -9.98       86.26       
C           123.96      -9.62       84.97       
C           122.39      -28.61      89.56       
C           121.28      -27.8       89.39       
S           123.85      -27.66      89.83       
C           122.13      -21.95      87.71       
C           123.11      -22.48      88.57       
C           124.25      -21.72      88.85       
C           124.2       -20.4       88.52       
C           123.13      -19.84      87.8        
C           122.13      -20.69      87.3        
C           125.18      -19.33      88.96       
C           124.49      -18.13      88.42       
C           123.43      -18.44      87.61       
C           121.03      -22.99      87.55       
C           121.45      -24.19      88.46       
C           122.74      -23.92      88.85       
C           125.05      -16.89      88.36       
C           124.4       -15.93      87.49       
C           123.23      -16.27      86.72       
C           122.73      -17.56      86.74       
C           120.81      -25.37      88.75       
C           121.59      -26.44      89.05       
C           122.99      -26.22      89.3        
C           123.58      -24.96      89.2        
C           125.35      -19.44      90.51       
C           126.52      -19.39      88.27       
C           119.67      -22.31      87.82       
C           121.1       -23.61      86.13       
H           121.29      -20.3       86.62       
H           125.06      -22.21      89.35       
H           119.73      -25.56      88.57       
H           124.67      -24.86      89.36       
H           125.85      -16.69      89.03       
H           121.96      -17.81      86.01       
H           125.32      -20.49      90.85       
H           126.38      -19.23      90.85       
H           124.59764   -18.90359   91.0882     
H           126.29      -19.17      87.27       
H           127.16      -18.58      88.64       
H           127.04578   -20.34471   88.28384    
H           120.07      -23.45      85.74       
H           121.24      -24.68      86.14       
H           121.92039   -23.23772   85.51643    
H           119.5       -21.41      87.26       
H           118.89      -22.95      87.39       
H           119.47615   -22.05154   88.86102    
H           125.55      -14.09      87.94       
H           120.27      -28.29      89.2        
S           122.76      -14.87      85.73       
C           124.73      -14.55      87.4        
C           123.96      -13.88      86.47       
C           123.09      -33.03      89.15       
C           121.78      -32.56      89.44       
C           124.04      -32.06      89.09       
N           120.68      -33.28      89.51       
N           120.22      -30.89      90.13       
S           119.52      -32.33      90.14       
H           124.53      -29.96      89.03       
H           125.08      -32.29      88.97       
C           123.8       -30.69      89.3        
C           121.53      -31.09      89.78       
C           122.59      -30.11      89.6        
C           129.62      -47.85      85.12       
C           130.22      -46.77      85.7        
S           127.91      -47.49      84.9        
C           127.59      -41.68      87.6        
C           126.62      -42.69      87.11       
C           125.29      -42.38      86.97       
C           124.91      -41.15      87.36       
C           125.81      -40.14      87.77       
C           127.16      -40.39      87.92       
C           123.47      -40.63      87.51       
C           123.71      -39.16      87.79       
C           125.12      -38.93      88.06       
C           128.99      -42.31      87.79       
C           128.8       -43.56      86.97       
C           127.48      -43.91      86.75       
C           122.87      -38.06      87.88       
C           123.31      -36.78      88.24       
C           124.68      -36.63      88.57       
C           125.61      -37.63      88.36       
C           129.77      -44.52      86.67       
C           129.36      -45.71      86.07       
C           128.01      -46.0       85.82       
C           127.02      -45.1       86.12       
C           122.75      -40.84      86.11       
C           122.73      -41.27      88.66       
C           130.12      -41.41      87.2        
C           129.26      -42.79      89.27       
H           127.77      -39.76      88.5        
H           124.61      -43.11      86.62       
H           130.83      -44.27      86.73       
H           126.0       -45.16      85.8        
H           121.81      -38.26      87.9        
H           126.68      -37.45      88.47       
H           121.76      -41.26      86.14       
H           123.2       -41.71      85.66       
H           122.85494   -39.99349   85.43139    
H           122.52      -42.34      88.48       
H           121.84      -40.66      88.72       
H           123.33562   -41.31873   89.56496    
H           130.37      -42.87      89.38       
H           128.78      -43.8       89.42       
H           128.88088   -42.08183   90.00679    
H           130.32      -40.64      87.98       
H           131.07      -42.0       87.13       
H           129.87848   -40.98216   86.22701    
H           121.53      -35.34      88.38       
H           131.29      -46.73      85.91       
S           125.01      -35.02      89.19       
C           122.59      -35.49      88.51       
C           123.39      -34.4       88.81       
C           130.99      -51.82      83.64       
C           131.99      -50.79      83.98       
C           129.67      -51.46      83.93       
N           133.32      -50.97      83.88       
N           132.65      -48.75      84.69       
S           133.99      -49.48      84.2        
H           128.34      -49.93      84.5        
H           128.86      -52.17      83.74       
C           129.32      -50.17      84.46       
C           131.59      -49.51      84.5        
C           130.17      -49.14      84.64       
C           134.89      -66.05      76.08       
C           135.34      -64.85      75.66       
S           134.21      -65.88      77.78       
C           134.41      -59.66      78.61       
C           133.96      -60.77      79.33       
C           133.13      -60.76      80.49       
C           132.8       -59.42      80.97       
C           133.22      -58.25      80.21       
C           134.12      -58.39      79.04       
C           132.03      -59.0       82.22       
C           131.84      -57.49      81.9        
C           132.62      -57.06      80.88       
C           135.02      -60.03      77.28       
C           135.02      -61.56      77.42       
C           134.39      -61.95      78.62       
C           131.27      -56.64      82.73       
C           131.39      -55.27      82.57       
C           132.29      -54.86      81.54       
C           132.88      -55.75      80.66       
C           135.32      -62.4       76.36       
C           135.1       -63.76      76.53       
C           134.49      -64.21      77.79       
C           134.15      -63.31      78.78       
C           130.71      -59.69      82.53       
C           133.06      -59.08      83.36       
C           134.05      -59.65      76.09       
C           136.39      -59.39      77.11       
H           134.41      -57.49      78.54       
H           132.72      -61.64      80.96       
H           135.69      -62.09      75.34       
H           133.7       -63.62      79.73       
H           130.62      -56.96      83.53       
H           133.61      -55.47      79.96       
H           130.87      -60.73      82.71       
H           130.46      -59.25      83.49       
H           129.90711   -59.555     81.80527    
H           133.95      -58.48      83.09       
H           132.8       -58.66      84.3        
H           133.43168   -60.08284   83.57039    
H           136.27      -58.29      77.03       
H           136.99      -59.56      77.97       
H           136.92982   -59.71799   76.22168    
H           134.35      -59.96      75.12       
H           134.1       -58.54      75.89       
H           133.02121   -59.96005   76.27321    
H           130.13      -54.4       84.15       
H           135.8       -64.53      74.7        
S           132.47      -53.12      81.76       
C           130.76      -54.24      83.28       
C           131.39      -53.09      83.09       
C           135.0       -70.03      74.01       
C           135.85      -68.91      73.73       
C           134.17      -69.74      75.1        
N           136.66      -68.99      72.65       
N           136.76      -66.81      73.83       
S           137.6       -67.6       72.69       
H           133.58      -68.31      76.59       
H           133.53      -70.51      75.41       
C           134.23      -68.45      75.74       
C           135.88      -67.68      74.36       
C           134.98      -67.39      75.43       
H           36.87       70.63       99.94       
H           134.83      -70.85      73.25       
