612

C           10.61       5.95        94.97       
C           9.45        5.36        95.48       
S           10.33       6.68        93.43       
C           4.67        4.22        91.94       
C           5.75        4.88        91.31       
C           5.78        5.2         89.95       
C           4.78        4.75        89.11       
C           3.78        4.04        89.77       
C           3.6         3.91        91.14       
C           4.83        4.59        87.62       
C           3.41        4.06        87.43       
C           2.84        3.7         88.67       
C           5.0         3.73        93.38       
C           6.24        4.58        93.58       
C           6.63        5.28        92.41       
C           2.79        3.74        86.26       
C           1.56        3.11        86.32       
C           0.97        2.79        87.55       
C           1.6         3.1         88.72       
C           7.11        4.74        94.69       
C           8.4         5.29        94.55       
C           8.74        5.92        93.34       
C           7.82        5.98        92.29       
C           4.9         5.92        86.81       
C           5.84        3.49        87.2        
C           3.97        3.87        94.48       
C           5.45        2.24        93.41       
H           2.78        3.33        91.52       
H           6.53        5.94        89.57       
H           6.82        4.34        95.66       
H           8.12        6.48        91.38       
H           3.24        3.97        85.26       
H           1.17        2.86        89.68       
H           5.86        6.37        86.94       
H           4.6         5.86        85.72       
H           4.36133     6.75712     87.25404    
H           5.57        2.55        87.67       
H           5.65        3.29        86.14       
H           6.9063      3.70891     87.25649    
H           5.87        2.19        94.43       
H           6.21        1.98        92.68       
H           4.64809     1.50722     93.32013    
H           3.05        3.39        94.13       
H           4.18        3.28        95.36       
H           3.82065     4.9012      94.80003    
H           1.1         2.64        84.23       
H           9.48        4.82        96.39       
S           -0.67       2.16        87.33       
C           0.78        2.65        85.19       
C           -0.44       2.08        85.55       
C           14.65       5.66        96.6        
C           13.73       4.66        96.98       
C           14.11       6.7         95.89       
N           13.9        3.67        97.82       
N           11.59       3.73        96.93       
S           12.57       2.75        97.83       
H           12.73       7.51        94.55       
H           14.8        7.48        95.56       
C           12.91       6.66        95.16       
C           12.36       4.78        96.55       
C           11.95       5.79        95.5        
C           30.6        1.44        94.49       
C           29.52       0.73        94.16       
S           30.3        2.61        95.74       
C           23.88       2.42        95.23       
C           24.83       3.23        95.9        
C           24.4        4.43        96.49       
C           23.03       4.82        96.53       
C           22.09       3.88        95.95       
C           22.52       2.74        95.26       
C           22.26       5.95        97.18       
C           20.81       5.72        96.73       
C           20.75       4.4         96.17       
C           24.52       1.2         94.61       
C           26.01       1.49        94.94       
C           26.18       2.64        95.71       
C           19.65       6.45        96.94       
C           18.37       5.88        96.72       
C           18.39       4.57        96.18       
C           19.55       3.84        95.95       
C           27.04       0.82        94.41       
C           28.35       1.27        94.7        
C           28.55       2.36        95.64       
C           27.45       2.98        96.25       
C           22.41       5.98        98.69       
C           22.55       7.34        96.54       
C           24.03       -0.18       95.17       
C           24.33       1.19        93.13       
H           21.84       2.04        94.9        
H           25.16       5.04        96.96       
H           26.79       -0.01       93.79       
H           27.65       3.8         96.87       
H           19.69       7.46        97.39       
H           19.44       2.87        95.55       
H           22.41       6.97        99.04       
H           23.44       5.7         98.78       
H           21.73864    5.31571     99.23415    
H           22.27       7.35        95.48       
H           21.95       8.07        97.05       
H           23.61329    7.57942     96.52592    
H           23.26       1.15        92.87       
H           24.93       0.41        92.69       
H           24.66341    2.10325     92.63714    
H           23.01       -0.41       94.94       
H           24.65       -0.95       94.61       
H           24.23507    -0.23127    96.23931    
H           16.81       7.41        97.14       
H           29.51       0.0         93.3        
S           16.84       3.91        95.91       
C           17.05       6.38        96.87       
C           16.1        5.4         96.62       
C           34.6        1.97        92.66       
C           33.55       1.35        92.02       
C           34.26       2.34        93.94       
N           33.6        1.08        90.72       
N           31.36       0.49        91.71       
S           32.21       0.29        90.28       
H           32.89       2.48        95.67       
H           34.98       2.88        94.53       
C           32.96       2.14        94.61       
C           32.25       1.1         92.61       
C           31.92       1.45        93.97       
C           50.3        2.76        87.37       
C           49.85       2.01        88.39       
S           48.9        3.54        86.58       
C           44.09       1.73        90.13       
C           44.26       2.3         88.84       
C           43.23       3.08        88.23       
C           41.95       3.09        88.84       
C           41.8        2.44        90.09       
C           42.86       1.88        90.79       
C           40.62       3.63        88.33       
C           39.71       3.17        89.44       
C           40.44       2.51        90.5        
C           45.38       1.22        90.77       
C           46.4        1.48        89.62       
C           45.72       2.14        88.53       
C           38.37       3.29        89.45       
C           37.65       2.72        90.5        
C           38.4        2.19        91.61       
C           39.77       2.07        91.58       
C           47.77       1.38        89.57       
C           48.44       2.02        88.59       
C           47.77       2.79        87.57       
C           46.42       2.78        87.47       
C           40.61       5.18        88.26       
C           40.06       3.08        86.98       
C           45.73       2.17        91.93       
C           45.18       -0.17       91.28       
H           42.75       1.37        91.77       
H           43.39       3.62        87.26       
H           48.36       0.75        90.26       
H           45.89       3.28        86.71       
H           37.95       3.77        88.57       
H           40.28       1.6         92.48       
H           41.08       5.27        87.25       
H           39.53       5.63        88.24       
H           41.16648    5.658       89.06619    
H           39.8        1.99        87.17       
H           39.08       3.52        86.71       
H           40.68779    3.14348     86.09121    
H           44.42       -0.07       92.0        
H           44.96       -0.82       90.51       
H           46.07979    -0.55259    91.76178    
H           44.89       2.18        92.67       
H           46.58       1.77        92.44       
H           45.93221    3.18826     91.5978     
H           35.47       3.0         90.12       
H           50.55       1.48        89.08       
S           37.35       1.84        92.93       
C           36.23       2.68        90.76       
C           35.88       2.25        92.02       
C           54.41       3.89        85.85       
C           54.21       2.62        86.53       
C           53.25       4.58        85.68       
N           55.2        1.68        86.74       
N           52.85       0.9         87.32       
S           54.39       0.36        87.37       
H           51.19       4.84        85.81       
H           53.29       5.51        85.08       
C           51.92       4.15        86.07       
C           52.87       2.18        86.99       
C           51.69       3.03        86.79       
C           67.99       12.82       86.52       
C           67.67       11.83       87.43       
S           67.1        12.58       85.03       
C           63.14       7.91        86.5        
C           63.43       8.72        85.38       
C           62.65       8.65        84.21       
C           61.56       7.83        84.22       
C           61.22       7.03        85.37       
C           62.1        7.01        86.41       
C           60.33       7.93        83.22       
C           59.42       6.84        83.93       
C           60.0        6.33        85.11       
C           64.21       7.98        87.56       
C           65.06       9.14        87.09       
C           64.63       9.5         85.77       
C           58.15       6.5         83.58       
C           57.36       5.64        84.45       
C           58.05       5.16        85.65       
C           59.39       5.4         85.93       
C           66.08       9.82        87.63       
C           66.67       10.96       87.01       
C           66.17       11.25       85.68       
C           65.22       10.51       85.05       
C           59.64       9.24        83.14       
C           60.68       7.34        81.83       
C           63.51       8.22        88.9        
C           65.0        6.58        87.54       
H           61.89       6.32        87.26       
H           62.92       9.35        83.42       
H           66.4        9.54        88.6        
H           64.81       10.84       84.13       
H           57.68       6.95        82.72       
H           59.82       4.96        86.81       
H           60.23       9.89        82.56       
H           58.64       9.08        82.76       
H           59.56123    9.77706     84.08523    
H           61.16       6.29        81.93       
H           59.64       7.14        81.4        
H           61.27769    7.90253     81.11277    
H           64.13       6.04        87.91       
H           65.22       6.22        86.52       
H           65.9259     6.5149      88.11146    
H           62.82       7.44        89.07       
H           62.96       9.18        88.84       
H           64.15282    8.35879     89.76927    
H           55.22       5.6         83.78       
H           68.15       11.75       88.39       
S           57.01       4.18        86.66       
C           55.99       5.25        84.49       
C           55.69       4.36        85.46       
C           71.25       15.61       86.08       
C           71.05       14.94       87.33       
C           70.2        15.56       85.22       
N           71.94       14.94       88.34       
N           69.97       13.52       88.69       
S           71.3        13.99       89.49       
H           68.41       14.77       84.54       
H           70.09       16.31       84.4        
C           69.12       14.68       85.37       
C           69.88       14.12       87.56       
C           68.92       13.91       86.49       
C           81.95       15.97       75.86       
C           80.91       16.81       75.56       
S           82.43       16.15       77.56       
C           77.7        19.43       80.11       
C           78.9        18.75       80.5        
C           79.32       18.45       81.78       
C           78.3        18.58       82.75       
C           77.05       18.97       82.36       
C           76.7        19.57       81.07       
C           78.32       17.97       84.18       
C           76.75       17.89       84.4        
C           76.09       18.5        83.34       
C           77.57       19.45       78.58       
C           78.78       18.62       78.13       
C           79.59       18.41       79.27       
C           75.99       17.25       85.39       
C           74.57       17.24       85.33       
C           73.96       17.9        84.3        
C           74.68       18.52       83.29       
C           79.2        18.27       76.87       
C           80.41       17.54       76.71       
C           81.15       17.26       77.92       
C           80.77       17.74       79.2        
C           78.89       16.52       84.32       
C           78.86       19.04       85.21       
C           76.09       18.91       78.29       
C           77.66       20.93       78.04       
H           75.68       19.77       80.85       
H           80.28       18.01       82.08       
H           78.54       18.3        75.99       
H           81.39       17.57       80.07       
H           76.49       16.5        86.05       
H           74.12       19.01       82.48       
H           79.87       16.53       84.07       
H           78.92       16.37       85.44       
H           78.33478    15.73404    83.80804    
H           78.16       19.85       85.12       
H           78.77       18.71       86.27       
H           79.87987    19.34596    84.97689    
H           76.7        21.46       78.29       
H           77.74       21.11       76.92       
H           78.38085    21.57387    78.5439     
H           75.28       19.23       78.98       
H           75.87       19.18       77.27       
H           76.0548     17.8257     78.39561    
H           74.08       15.85       86.97       
H           80.5        16.9        74.56       
S           72.2        17.64       84.41       
C           73.72       16.44       86.13       
C           72.43       16.49       85.71       
C           84.38       13.57       73.16       
C           83.68       12.94       74.23       
C           84.21       14.95       73.08       
N           83.61       11.62       74.53       
N           82.29       13.03       76.08       
S           82.81       11.46       75.95       
H           83.6        16.79       73.88       
H           84.88       15.45       72.43       
C           83.4        15.73       73.95       
C           82.9        13.77       75.19       
C           82.77       15.22       75.02       
C           92.21       3.59        62.68       
C           91.52       4.71        62.29       
S           92.65       3.66        64.4        
C           89.95       9.09        66.13       
C           90.55       7.98        66.69       
C           90.55       7.84        68.1        
C           89.77       8.68        68.87       
C           89.05       9.83        68.25       
C           89.31       10.09       66.89       
C           89.45       8.61        70.37       
C           88.39       9.71        70.43       
C           88.23       10.48       69.25       
C           90.12       9.06        64.6        
C           90.65       7.68        64.39       
C           91.06       7.13        65.64       
C           87.67       10.02       71.52       
C           86.82       11.17       71.54       
C           86.72       11.98       70.34       
C           87.44       11.62       69.21       
C           90.76       6.94        63.21       
C           91.32       5.64        63.38       
C           91.92       5.26        64.57       
C           91.83       5.97        65.69       
C           88.86       7.26        70.88       
C           90.69       8.91        71.19       
C           88.83       9.25        63.78       
C           91.16       10.08       64.23       
H           88.98       10.93       66.38       
H           91.02       6.97        68.53       
H           90.26       7.26        62.26       
H           92.2        5.63        66.65       
H           87.73       9.43        72.44       
H           87.35       12.25       68.39       
H           89.7        6.63        70.9        
H           88.44       7.37        71.87       
H           88.1442     6.83192     70.17823    
H           91.31       8.06        71.34       
H           90.4        9.14        72.19       
H           91.25814    9.77606     70.8505     
H           91.0        11.08       64.58       
H           92.0        9.75        64.89       
H           91.48948    10.02392    63.1925     
H           89.06       9.34        62.72       
H           88.47       10.27       63.92       
H           88.08073    8.47912     63.96011    
H           85.94       11.21       73.62       
H           90.86       4.74        61.45       
S           85.65       13.35       70.66       
C           86.06       11.72       72.62       
C           85.4        12.89       72.33       
C           91.08       -0.44       61.62       
C           92.33       -0.15       62.29       
C           90.48       0.68        61.07       
N           93.18       -1.07       62.82       
N           94.08       1.28        62.99       
S           94.5        -0.28       63.31       
H           90.31       2.85        61.1        
H           89.55       0.56        60.6        
C           90.95       2.01        61.3        
C           92.87       1.22        62.42       
C           92.06       2.34        62.02       
C           79.83       -12.75      62.44       
C           79.8        -11.67      61.56       
S           81.19       -12.76      63.47       
C           83.95       -7.39       61.58       
C           84.43       -8.46       62.35       
C           85.66       -8.49       62.99       
C           86.49       -7.41       62.8        
C           86.07       -6.3        62.08       
C           84.79       -6.26       61.48       
C           87.69       -7.0        63.75       
C           88.1        -5.64       63.12       
C           87.08       -5.26       62.19       
C           82.49       -7.4        61.08       
C           82.28       -8.84       61.41       
C           83.25       -9.39       62.32       
C           89.23       -4.9        63.2        
C           89.38       -3.75       62.41       
C           88.38       -3.34       61.52       
C           87.2        -4.04       61.44       
C           81.22       -9.58       61.1        
C           80.89       -10.77      61.8        
C           81.79       -11.28      62.75       
C           83.01       -10.65      62.98       
C           87.18       -6.99       65.26       
C           88.77       -8.08       63.51       
C           81.71       -6.4        61.87       
C           82.37       -7.12       59.57       
H           84.37       -5.36       61.0        
H           85.91       -9.29       63.62       
H           80.58       -9.38       60.27       
H           83.76       -11.0       63.68       
H           89.97       -5.15       63.98       
H           86.4        -3.66       60.84       
H           86.92       -7.95       65.74       
H           86.29       -6.45       65.21       
H           87.8669     -6.53946    65.97644    
H           88.29       -8.99       64.01       
H           89.69       -7.87       64.07       
H           89.03946    -8.25018    62.46763    
H           82.57       -6.1        59.31       
H           81.39       -7.39       59.14       
H           82.9693     -7.84059    59.0135     
H           80.87       -6.02       61.21       
H           82.33       -5.57       62.09       
H           81.18651    -6.79615    62.74013    
H           91.21       -2.82       63.34       
H           78.99       -11.64      60.73       
S           88.93       -1.87       60.71       
C           90.42       -2.74       62.56       
C           90.33       -1.66       61.74       
C           77.01       -16.18      62.03       
C           78.17       -16.29      62.84       
C           76.8        -14.92      61.49       
N           78.43       -17.36      63.56       
N           80.12       -15.5       63.81       
S           79.85       -17.07      64.25       
H           77.47       -12.9       61.07       
H           75.93       -14.62      60.89       
C           77.73       -13.81      61.64       
C           79.08       -15.13      63.06       
C           78.82       -13.87      62.48       
C           63.24       -24.38      58.45       
C           63.73       -23.33      57.72       
S           64.58       -25.09      59.32       
C           69.23       -20.89      58.6        
C           68.99       -22.12      59.31       
C           69.88       -22.69      60.2        
C           71.06       -21.85      60.52       
C           71.15       -20.6       59.95       
C           70.33       -20.14      58.92       
C           72.21       -22.07      61.47       
C           72.85       -20.66      61.45       
C           72.3        -19.89      60.39       
C           68.08       -20.41      57.73       
C           67.08       -21.55      58.03       
C           67.62       -22.55      58.93       
C           73.96       -20.27      62.19       
C           74.6        -19.16      61.76       
C           74.0        -18.35      60.75       
C           72.87       -18.72      60.06       
C           65.78       -21.77      57.57       
C           65.14       -22.95      57.98       
C           65.74       -23.86      58.84       
C           67.08       -23.71      59.28       
C           71.61       -22.5       62.87       
C           73.28       -23.0       60.88       
C           67.52       -19.02      58.08       
C           68.49       -20.51      56.21       
H           70.38       -19.17      58.45       
H           69.63       -23.52      60.88       
H           65.25       -21.11      56.94       
H           67.57       -24.27      60.06       
H           74.37       -20.92      63.03       
H           72.46       -17.98      59.33       
H           71.06       -23.4       62.85       
H           72.31       -22.7       63.65       
H           71.00377    -21.68694   63.2694     
H           73.62       -22.36      60.0        
H           74.1        -23.07      61.5        
H           72.9138     -24.0       60.64761    
H           67.8        -20.0       55.52       
H           68.63       -21.51      55.87       
H           69.39662    -19.96461   55.94793    
H           68.28       -18.27      57.8        
H           67.36       -19.03      59.17       
H           66.60552    -18.68309   57.59182    
H           76.29       -18.85      63.14       
H           63.03       -22.84      57.11       
S           74.83       -16.86      60.55       
C           75.66       -18.42      62.41       
C           75.98       -17.21      61.79       
C           59.25       -26.25      58.67       
C           59.44       -25.01      58.17       
C           60.42       -26.87      59.1        
N           58.43       -24.33      57.67       
N           60.56       -23.21      57.34       
S           59.01       -22.99      56.97       
H           62.54       -26.75      59.44       
H           60.33       -27.81      59.64       
C           61.72       -26.24      58.95       
C           60.72       -24.32      58.05       
C           61.9        -24.99      58.47       
C           46.3        -29.13      68.76       
C           46.33       -28.09      67.9        
S           47.78       -30.0       68.67       
C           50.8        -27.12      63.88       
C           50.92       -28.29      64.69       
C           52.02       -29.13      64.6        
C           52.94       -28.85      63.6        
C           52.85       -27.7       62.81       
C           51.77       -26.83      62.9        
C           54.17       -29.7       63.22       
C           54.85       -28.89      62.09       
C           54.07       -27.68      61.94       
C           49.57       -26.28      64.38       
C           48.94       -27.22      65.3        
C           49.83       -28.28      65.65       
C           56.04       -29.1       61.38       
C           56.5        -28.08      60.53       
C           55.73       -26.89      60.42       
C           54.51       -26.7       61.08       
C           47.79       -27.02      66.07       
C           47.52       -27.94      67.1        
C           48.42       -28.95      67.43       
C           49.59       -29.13      66.7        
C           55.1        -29.9       64.46       
C           53.68       -31.04      62.58       
C           50.03       -25.04      65.05       
C           48.51       -25.86      63.36       
H           51.75       -25.91      62.3        
H           52.09       -30.04      65.26       
H           47.06       -26.2       65.83       
H           50.23       -29.95      66.94       
H           56.6        -29.99      61.47       
H           54.05       -25.79      60.99       
H           56.0        -30.48      64.31       
H           54.63       -30.62      65.16       
H           55.45691    -28.96923   64.90089    
H           52.94       -31.43      63.21       
H           54.5        -31.73      62.65       
H           53.34463    -30.96864   61.54533    
H           47.87       -25.0       63.77       
H           47.92       -26.81      63.23       
H           48.88138    -25.52503   62.39151    
H           50.44       -24.35      64.3        
H           49.19       -24.58      65.52       
H           50.74873    -25.20207   65.85328    
H           58.44       -28.83      59.77       
H           45.47       -27.42      67.8        
S           56.54       -25.75      59.43       
C           57.73       -28.0       59.8        
C           57.93       -26.8       59.16       
C           43.24       -31.45      70.99       
C           42.93       -30.18      70.39       
C           44.56       -31.72      71.04       
N           41.71       -29.62      70.29       
N           43.44       -28.21      69.07       
S           41.88       -28.15      69.64       
H           46.57       -31.06      70.63       
H           44.99       -32.68      71.39       
C           45.55       -30.77      70.49       
C           43.91       -29.32      69.7        
C           45.26       -29.71      69.66       
C           31.43       -43.0       72.49       
C           31.37       -41.73      73.04       
S           32.72       -43.13      71.36       
C           35.81       -37.66      72.6        
C           36.03       -38.82      71.88       
C           37.15       -39.01      71.07       
C           38.06       -38.02      71.01       
C           37.91       -36.88      71.79       
C           36.76       -36.62      72.62       
C           39.35       -37.89      70.25       
C           39.89       -36.5       70.77       
C           39.02       -35.93      71.65       
C           34.37       -37.55      73.16       
C           33.99       -39.03      72.89       
C           34.93       -39.75      72.14       
C           41.04       -35.89      70.35       
C           41.31       -34.64      70.89       
C           40.42       -34.04      71.79       
C           39.24       -34.65      72.11       
C           32.82       -39.65      73.25       
C           32.61       -40.98      72.81       
C           33.49       -41.65      71.93       
C           34.71       -41.04      71.6        
C           40.3        -39.1       70.66       
C           39.06       -37.94      68.73       
C           34.48       -36.98      74.64       
C           33.56       -36.51      72.36       
H           36.64       -35.67      73.18       
H           37.4        -39.92      70.59       
H           32.16       -39.25      73.99       
H           35.32       -41.44      70.85       
H           41.75       -36.36      69.64       
H           38.42       -34.13      72.59       
H           39.88       -40.06      70.43       
H           40.32       -39.1       71.74       
H           41.35967    -39.0431    70.41108    
H           38.68       -38.93      68.55       
H           39.98       -37.94      68.11       
H           38.38324    -37.14084   68.42762    
H           33.99       -35.51      72.22       
H           33.48       -36.84      71.35       
H           32.53762    -36.28437   72.66319    
H           33.95       -36.0       74.63       
H           35.47       -36.64      74.87       
H           34.01063    -37.61545   75.39099    
H           43.21       -33.95      69.93       
H           30.55       -41.36      73.7        
S           40.94       -32.32      72.22       
C           42.4        -33.76      70.6        
C           42.28       -32.51      71.14       
C           28.47       -46.25      72.47       
C           27.99       -44.95      72.78       
C           29.79       -46.33      72.33       
N           26.75       -44.59      72.91       
N           28.33       -42.7       73.1        
S           26.7        -42.97      73.14       
H           31.79       -45.46      72.19       
H           30.18       -47.41      72.28       
C           30.75       -45.25      72.45       
C           28.96       -43.84      72.76       
C           30.37       -43.94      72.52       
H           -0.98       1.31        84.96       
H           27.78       -47.03      72.17       
