612

C           100.32      89.69       67.17       
C           101.63      89.24       67.29       
S           99.94       90.8        68.45       
C           105.33      91.13       71.78       
C           104.08      91.75       71.65       
C           103.76      93.0        72.36       
C           104.74      93.62       73.16       
C           105.99      92.98       73.24       
C           106.3       91.73       72.64       
C           104.74      94.94       74.01       
C           106.15      94.98       74.5        
C           106.85      93.76       74.12       
C           105.44      89.9        70.79       
C           104.05      90.05       70.09       
C           103.24      91.05       70.71       
C           106.79      95.88       75.24       
C           108.17      95.68       75.53       
C           108.83      94.51       75.21       
C           108.17      93.51       74.45       
C           103.65      89.43       68.97       
C           102.33      89.73       68.47       
C           101.54      90.7        69.12       
C           101.99      91.39       70.28       
C           104.49      96.2        73.13       
C           103.88      94.88       75.31       
C           106.59      90.2        69.77       
C           105.69      88.53       71.54       
H           107.27      91.36       72.68       
H           102.79      93.44       72.22       
H           104.22      88.69       68.43       
H           101.35      92.07       70.75       
H           106.5       96.83       75.44       
H           108.61      92.6        74.12       
H           103.47      96.21       72.9        
H           104.7       97.13       73.78       
H           105.09161   96.12752    72.22396    
H           104.04      93.92       75.85       
H           104.06      95.75       75.92       
H           102.81734   94.88713    75.06751    
H           106.7       88.4        71.84       
H           105.08      88.53       72.47       
H           105.55719   87.62131    70.95285    
H           107.59      90.1        70.29       
H           106.38      89.46       68.95       
H           106.5187    91.18398    69.30653    
H           108.76      97.51       76.63       
H           102.08      88.57       66.6        
S           110.52      94.52       75.75       
C           109.02      96.53       76.29       
C           110.23      96.05       76.5        
C           97.12       89.0        64.26       
C           98.51       89.1        63.77       
C           96.9        89.22       65.59       
N           98.99       88.88       62.55       
N           100.75      89.66       64.14       
S           100.55      89.33       62.57       
H           97.68       89.78       67.5        
H           96.0        89.01       66.18       
C           97.96       89.58       66.46       
C           99.56       89.52       64.69       
C           99.28       89.64       66.09       
C           83.8        80.45       59.03       
C           83.92       81.17       60.19       
S           85.17       80.79       57.96       
C           88.85       84.21       61.81       
C           88.96       83.71       60.52       
C           90.13       83.98       59.7        
C           91.09       84.8        60.22       
C           91.05       85.19       61.59       
C           89.94       84.87       62.38       
C           92.54       84.75       59.73       
C           93.29       85.53       60.89       
C           92.3        85.81       61.89       
C           87.55       83.85       62.56       
C           86.91       82.98       61.48       
C           87.67       82.97       60.28       
C           94.52       86.09       60.9        
C           94.87       86.9        62.04       
C           93.91       87.08       63.06       
C           92.63       86.55       62.99       
C           85.7        82.4        61.48       
C           85.21       81.78       60.35       
C           85.95       81.78       59.17       
C           87.22       82.31       59.13       
C           92.98       83.26       59.72       
C           92.7        85.29       58.3        
C           87.83       83.08       63.87       
C           86.77       85.15       62.76       
H           89.82       85.24       63.41       
H           90.16       83.61       58.65       
H           85.2        82.36       62.41       
H           87.83       82.3        58.21       
H           95.22       85.95       60.09       
H           91.91       86.74       63.79       
H           93.11       82.85       58.76       
H           92.27       82.66       60.2        
H           93.92861    83.08169    60.2264     
H           92.16       84.64       57.66       
H           93.79       85.27       58.15       
H           92.34397    86.30824    58.14335    
H           87.53       85.88       63.08       
H           86.5        85.72       61.88       
H           85.91752    85.15693    63.43921    
H           88.6        83.49       64.44       
H           86.99       83.05       64.54       
H           88.16412    82.06371    63.66117    
H           96.96       87.73       61.64       
H           83.17       81.09       60.97       
S           94.54       88.15       64.28       
C           96.06       87.68       62.28       
C           96.07       88.32       63.48       
C           80.59       78.18       56.88       
C           80.34       78.94       58.11       
C           81.89       78.17       56.6        
N           79.13       79.02       58.67       
N           80.91       80.28       59.96       
S           79.32       79.91       60.02       
H           83.94       78.72       56.98       
H           82.17       77.59       55.82       
C           82.91       78.84       57.28       
C           81.37       79.64       58.87       
C           82.74       79.67       58.4        
C           74.72       65.8        48.38       
C           75.6        66.63       47.76       
S           73.83       66.63       49.71       
C           77.12       71.96       50.24       
C           76.02       71.31       50.82       
C           75.51       71.62       52.04       
C           76.07       72.7        52.77       
C           77.04       73.48       52.1        
C           77.68       73.06       50.87       
C           75.56       73.3        54.06       
C           76.51       74.51       54.07       
C           77.44       74.54       53.01       
C           77.43       71.31       48.88       
C           76.54       70.03       48.9        
C           75.7        70.1        50.06       
C           76.77       75.34       55.11       
C           77.91       76.08       55.21       
C           78.8        76.2        54.09       
C           78.55       75.39       52.98       
C           76.49       68.99       47.97       
C           75.68       67.91       48.34       
C           74.8        68.03       49.46       
C           74.71       69.14       50.29       
C           74.07       73.7        53.96       
C           75.88       72.46       55.32       
C           77.2        72.13       47.58       
C           78.85       70.66       48.84       
H           78.57       73.6        50.56       
H           74.68       71.09       52.53       
H           77.25       68.89       47.23       
H           74.05       69.21       51.15       
H           75.96       75.42       55.85       
H           79.17       75.39       52.08       
H           73.38       72.94       53.88       
H           73.93       74.03       55.02       
H           73.91889    74.49154    53.22602    
H           76.99       72.43       55.38       
H           75.56       72.96       56.16       
H           75.56623    71.41654    55.34919    
H           79.0        69.95       48.04       
H           78.82       70.2        49.79       
H           79.66127    71.38435    48.91244    
H           78.02       72.83       47.49       
H           77.21       71.5        46.74       
H           76.28302    72.71484    47.6522     
H           78.0        76.9        57.34       
H           76.1        66.19       46.92       
S           80.22       77.17       54.39       
C           78.47       76.8        56.35       
C           79.72       77.36       56.06       
C           73.74       61.41       48.01       
C           74.91       61.96       47.41       
C           73.04       62.36       48.7        
N           75.9        61.31       46.76       
N           76.24       63.76       46.66       
S           76.76       62.36       45.92       
H           72.79       64.41       49.42       
H           72.1        62.08       49.15       
C           73.45       63.71       48.84       
C           75.22       63.44       47.43       
C           74.46       64.35       48.19       
C           66.83       46.44       48.55       
C           66.14       47.54       48.95       
S           68.48       46.72       48.34       
C           68.92       52.95       49.43       
C           69.7        51.88       48.95       
C           71.04       52.04       48.59       
C           71.55       53.32       48.6        
C           70.8        54.36       49.15       
C           69.53       54.19       49.66       
C           72.61       53.87       47.66       
C           72.67       55.32       48.04       
C           71.61       55.56       48.97       
C           67.41       52.48       49.64       
C           67.53       50.98       49.36       
C           68.84       50.69       48.91       
C           73.46       56.3        47.5        
C           73.27       57.61       48.02       
C           72.2        57.85       48.93       
C           71.36       56.84       49.36       
C           66.53       50.03       49.37       
C           66.91       48.72       48.99       
C           68.24       48.43       48.7        
C           69.24       49.43       48.59       
C           73.95       53.08       47.84       
C           72.19       53.84       46.18       
C           67.0        52.61       51.11       
C           66.46       53.15       48.65       
H           69.01       55.04       50.02       
H           71.73       51.23       48.45       
H           65.49       50.27       49.54       
H           70.2        49.12       48.32       
H           74.27       56.2        46.86       
H           70.51       57.12       49.97       
H           74.04       52.13       47.38       
H           74.74       53.73       47.52       
H           74.14172    52.88143    48.89447    
H           71.19       54.24       46.02       
H           72.83       54.44       45.54       
H           72.16231    52.87099    45.68165    
H           65.42       52.71       48.91       
H           66.66       52.93       47.64       
H           66.44603    54.23935    48.68492    
H           67.01       53.73       51.28       
H           66.01       52.17       51.07       
H           67.65933    51.99275    51.72023    
H           74.85       58.95       47.0        
H           65.11       47.52       49.13       
S           72.07       59.54       49.34       
C           73.92       58.86       47.62       
C           73.3        59.97       48.14       
C           65.63       42.25       47.75       
C           64.58       43.26       47.92       
C           66.91       42.73       47.89       
N           63.22       43.15       47.85       
N           63.91       45.43       48.18       
S           62.53       44.62       48.09       
H           68.37       44.21       48.34       
H           67.71       42.03       47.75       
C           67.28       44.07       48.13       
C           65.02       44.66       48.09       
C           66.37       45.08       48.25       
C           63.79       26.26       50.92       
C           63.19       27.22       51.59       
S           64.75       26.94       49.55       
C           63.51       33.09       50.13       
C           64.39       32.19       49.44       
C           65.27       32.53       48.41       
C           65.41       33.87       48.14       
C           64.57       34.81       48.85       
C           63.6        34.38       49.79       
C           66.43       34.71       47.29       
C           65.89       36.13       47.5        
C           64.83       36.15       48.44       
C           62.69       32.3        51.07       
C           63.27       30.89       50.94       
C           64.12       30.83       49.88       
C           66.41       37.31       47.0        
C           65.88       38.52       47.46       
C           64.83       38.47       48.4        
C           64.26       37.31       48.86       
C           62.83       29.77       51.53       
C           63.37       28.55       51.05       
C           64.25       28.55       49.96       
C           64.56       29.67       49.29       
C           67.9        34.71       47.89       
C           66.38       34.39       45.79       
C           62.6        32.84       52.59       
C           61.19       32.18       50.59       
H           62.77       35.02       49.96       
H           66.0        31.86       47.95       
H           62.19       29.75       52.43       
H           65.14       29.68       48.31       
H           67.21       37.41       46.37       
H           63.42       37.3        49.61       
H           68.3        33.65       47.85       
H           68.61       35.34       47.4        
H           68.0233     35.02186    48.92713    
H           65.47       34.58       45.31       
H           67.05       35.14       45.35       
H           66.78473    33.47214    45.36359    
H           60.62       31.72       51.34       
H           61.18       31.6        49.66       
H           60.6681     33.13682    50.6045     
H           62.35       33.92       52.57       
H           61.75       32.4        53.02       
H           63.48757    32.74059    53.21485    
H           67.05       40.01       46.51       
H           62.59       27.04       52.46       
S           64.33       40.08       48.81       
C           66.16       39.84       47.08       
C           65.36       40.83       47.62       
C           64.08       21.89       51.62       
C           63.39       22.71       52.54       
C           64.51       22.61       50.47       
N           62.77       22.31       53.67       
N           62.66       24.82       53.3        
S           62.12       23.64       54.33       
H           64.66       24.43       49.29       
H           65.08       22.09       49.69       
C           64.42       24.01       50.29       
C           63.27       24.18       52.31       
C           63.9        24.86       51.21       
C           67.48       6.31        55.72       
C           66.83       7.19        56.58       
S           67.77       7.13        54.18       
C           66.22       13.03       55.26       
C           66.49       12.16       54.2        
C           66.71       12.71       52.91       
C           66.48       14.04       52.69       
C           66.26       14.93       53.74       
C           66.22       14.43       55.06       
C           66.41       14.7        51.34       
C           66.26       16.17       51.84       
C           66.23       16.26       53.23       
C           65.84       12.25       56.55       
C           66.18       10.84       56.13       
C           66.62       10.91       54.78       
C           65.96       17.21       51.06       
C           65.56       18.39       51.66       
C           65.53       18.56       53.09       
C           65.95       17.47       53.86       
C           66.27       9.63        56.87       
C           66.72       8.5         56.16       
C           67.16       8.62        54.83       
C           67.08       9.78        54.1        
C           67.64       14.47       50.46       
C           65.11       14.37       50.63       
C           66.71       12.58       57.83       
C           64.31       12.34       56.79       
H           66.12       15.08       55.91       
H           66.78       12.13       52.06       
H           65.89       9.6         57.89       
H           67.37       9.82        53.04       
H           65.88       17.11       49.98       
H           65.94       17.56       54.94       
H           67.71       13.42       50.13       
H           67.65       14.97       49.46       
H           68.52026    14.79655    51.01371    
H           64.33       14.64       51.37       
H           64.98       15.04       49.83       
H           64.99035    13.38466    50.17956    
H           64.06       13.35       57.22       
H           63.75       12.29       55.8        
H           63.86381    11.55385    57.39909    
H           66.13       12.27       58.65       
H           66.6        13.73       57.85       
H           67.75143    12.25956    57.85913    
H           64.73       19.56       50.02       
H           66.48       6.84        57.53       
S           64.87       20.09       53.63       
C           64.95       19.54       51.07       
C           64.53       20.47       51.93       
C           68.63       2.04        55.66       
C           68.07       2.64        56.83       
C           68.59       2.82        54.6        
N           67.76       2.08        57.99       
N           67.06       4.47        58.05       
S           67.17       3.18        59.09       
H           68.19       4.72        53.67       
H           68.67       2.38        53.63       
C           68.18       4.18        54.62       
C           67.62       4.03        56.89       
C           67.79       4.9         55.77       
C           72.55       -11.29      47.73       
C           72.83       -10.06      47.26       
S           72.22       -11.33      49.43       
C           73.21       -5.32       51.06       
C           72.97       -6.56       51.68       
C           72.51       -6.63       53.03       
C           72.05       -5.5        53.62       
C           72.12       -4.27       52.97       
C           72.87       -4.19       51.8        
C           71.3        -5.27       54.97       
C           70.82       -3.8        54.87       
C           71.46       -3.26       53.78       
C           73.6        -5.48       49.56       
C           73.45       -6.97       49.49       
C           73.03       -7.58       50.72       
C           70.01       -3.02       55.66       
C           69.88       -1.63       55.47       
C           70.54       -1.13       54.37       
C           71.37       -1.9        53.57       
C           73.38       -7.74       48.34       
C           73.01       -9.1        48.35       
C           72.74       -9.66       49.63       
C           72.77       -8.94       50.81       
C           70.04       -6.16       55.18       
C           72.27       -5.4        56.17       
C           72.54       -4.81       48.62       
C           75.11       -4.94       49.31       
H           72.89       -3.22       51.37       
H           72.37       -7.58       53.53       
H           73.67       -7.36       47.4        
H           72.36       -9.3        51.8        
H           69.39       -3.44       56.49       
H           71.82       -1.49       52.68       
H           70.26       -7.17       55.44       
H           69.43       -5.86       55.97       
H           69.43052    -6.18937    54.2768     
H           72.97       -4.54       56.2        
H           71.57       -5.39       57.04       
H           72.85048    -6.32194    56.13585    
H           75.58       -5.56       48.52       
H           75.79       -5.11       50.18       
H           75.23383    -3.89113    49.0405     
H           72.86       -4.69       47.55       
H           72.49       -3.79       48.94       
H           71.54064    -5.24235    48.66961    
H           68.29       -0.71       56.86       
H           72.94       -9.83       46.25       
S           70.41       0.6         54.2        
C           69.1        -0.52       56.09       
C           69.24       0.69        55.5        
C           70.92       -14.67      45.5        
C           71.66       -14.85      46.7        
C           70.95       -13.44      45.1        
N           71.94       -16.04      47.25       
N           72.96       -14.2       48.51       
S           72.76       -15.79      48.67       
H           71.46       -11.31      45.31       
H           70.75       -13.19      44.08       
C           71.54       -12.33      45.79       
C           72.28       -13.79      47.39       
C           72.16       -12.45      46.97       
C           69.52       -23.66      31.81       
C           70.72       -23.55      32.5        
S           68.26       -22.68      32.58       
C           70.82       -21.12      38.22       
C           69.64       -20.91      37.43       
C           68.59       -20.11      37.92       
C           68.7        -19.63      39.17       
C           69.91       -19.77      39.93       
C           70.97       -20.52      39.44       
C           67.74       -18.53      39.78       
C           68.55       -18.33      41.08       
C           69.83       -18.92      41.1        
C           71.82       -21.91      37.31       
C           71.04       -22.18      36.01       
C           69.78       -21.58      36.14       
C           68.32       -17.26      41.98       
C           69.37       -16.85      42.78       
C           70.58       -17.57      42.83       
C           70.88       -18.67      42.0        
C           71.44       -22.92      34.92       
C           70.55       -22.91      33.81       
C           69.29       -22.36      33.98       
C           68.86       -21.72      35.12       
C           67.63       -17.33      38.78       
C           66.33       -18.98      40.14       
C           73.14       -21.15      37.05       
C           72.14       -23.31      37.96       
H           71.9        -20.67      40.01       
H           67.67       -19.9       37.41       
H           72.45       -23.37      34.76       
H           67.85       -21.32      35.07       
H           67.37       -16.75      42.12       
H           71.82       -19.12      41.99       
H           66.95       -16.5       39.23       
H           67.05       -17.55      37.87       
H           68.62473    -16.94398   38.5573     
H           65.89       -19.58      39.29       
H           65.71       -18.09      40.31       
H           66.23133    -19.55089   41.06328    
H           72.8        -23.79      37.27       
H           71.29       -23.94      37.97       
H           72.75098    -23.27363   38.86193    
H           73.48       -20.73      37.99       
H           73.84       -21.74      36.46       
H           72.9505     -20.31181   36.37945    
H           68.57       -15.06      43.91       
H           71.58       -24.05      32.13       
S           71.63       -16.75      43.97       
C           69.34       -15.73      43.78       
C           70.43       -15.65      44.55       
C           68.51       -25.53      27.93       
C           69.82       -24.95      28.18       
C           67.71       -25.44      29.01       
N           70.82       -24.77      27.3        
N           71.4        -23.78      29.44       
S           72.04       -23.88      27.94       
H           67.32       -24.83      31.05       
H           66.62       -25.75      29.03       
C           68.11       -24.8       30.28       
C           70.21       -24.33      29.43       
C           69.29       -24.21      30.53       
C           63.58       -31.24      13.26       
C           62.7        -31.15      14.25       
S           65.17       -30.93      13.86       
C           64.21       -29.4       19.89       
C           65.21       -29.33      18.92       
C           66.42       -28.75      19.14       
C           66.7        -28.16      20.35       
C           65.77       -28.32      21.44       
C           64.49       -28.93      21.18       
C           68.09       -27.8       20.89       
C           67.76       -27.42      22.32       
C           66.42       -27.82      22.63       
C           62.87       -29.88      19.35       
C           63.24       -30.08      17.91       
C           64.62       -29.88      17.72       
C           68.63       -26.86      23.22       
C           68.12       -26.6       24.42       
C           66.8        -27.03      24.79       
C           65.94       -27.65      23.9        
C           62.59       -30.64      16.82       
C           63.24       -30.75      15.53       
C           64.6        -30.48      15.47       
C           65.36       -30.17      16.59       
C           68.95       -29.14      20.8        
C           68.74       -26.72      19.95       
C           62.45       -31.25      19.98       
C           61.76       -28.82      19.35       
H           63.82       -29.15      22.0        
H           67.05       -28.69      18.23       
H           61.54       -30.8       16.94       
H           66.47       -30.07      16.55       
H           69.69       -26.51      23.01       
H           64.92       -27.9       24.21       
H           69.32       -29.26      19.76       
H           68.36       -29.97      21.05       
H           69.87504    -29.15423   21.37637    
H           69.21       -27.19      19.11       
H           69.51       -26.25      20.51       
H           68.04721    -25.91666   19.69942    
H           60.84       -29.22      18.85       
H           61.9        -27.93      18.76       
H           61.46691    -28.39741   20.31105    
H           62.11       -31.11      21.06       
H           61.54       -31.66      19.6        
H           63.19019    -32.04149   19.86274    
H           69.82       -25.64      25.47       
H           61.67       -31.46      13.98       
S           66.42       -26.53      26.45       
C           68.78       -26.04      25.5        
C           68.02       -25.94      26.65       
C           63.47       -34.43      10.25       
C           64.27       -33.29      9.99        
C           62.75       -34.41      11.45       
N           65.1        -33.16      8.96        
N           65.27       -31.38      10.72       
S           66.02       -31.95      9.35        
H           61.99       -33.38      13.13       
H           62.1        -35.21      11.72       
C           62.69       -33.27      12.28       
C           64.32       -32.24      10.98       
C           63.58       -32.21      12.2        
C           58.1        -46.98      1.15        
C           57.77       -46.7       2.42        
S           59.48       -46.01      0.73        
C           60.45       -42.61      5.97        
C           61.16       -42.86      4.79        
C           62.39       -42.21      4.53        
C           62.76       -41.19      5.36        
C           61.96       -40.86      6.46        
C           60.84       -41.54      6.83        
C           63.82       -40.21      5.18        
C           63.63       -39.24      6.37        
C           62.53       -39.72      7.14        
C           59.16       -43.41      6.05        
C           59.2        -44.23      4.76        
C           60.3        -43.74      3.98        
C           64.21       -38.04      6.72        
C           63.74       -37.33      7.9         
C           62.65       -37.86      8.64        
C           62.14       -39.13      8.31        
C           58.41       -45.23      4.33        
C           58.6        -45.75      3.07        
C           59.62       -45.27      2.25        
C           60.44       -44.19      2.7         
C           65.17       -40.96      5.3         
C           63.67       -39.33      3.87        
C           59.15       -44.37      7.35        
C           57.91       -42.42      6.08        
H           60.22       -41.25      7.68        
H           62.86       -42.37      3.55        
H           57.57       -45.65      4.94        
H           61.15       -43.75      2.04        
H           65.06       -37.68      6.19        
H           61.35       -39.61      8.88        
H           65.44       -41.62      4.48        
H           66.03       -40.26      5.29        
H           65.32226    -41.51103   6.22805     
H           62.67       -38.97      3.72        
H           64.34       -38.5       3.93        
H           63.92829    -39.78918   2.91577     
H           58.04       -41.69      6.92        
H           57.88       -41.89      5.18        
H           56.94461    -42.92084   6.15259     
H           58.97       -43.77      8.25        
H           58.32       -45.02      7.21        
H           60.12337    -44.84633   7.46736     
H           65.01       -35.58      7.98        
H           56.9        -47.15      2.84        
S           62.12       -36.83      9.95        
C           64.16       -36.1       8.43        
C           63.4        -35.69      9.52        
C           56.5        -49.5       -2.04       
C           55.66       -48.96      -1.03       
C           57.8        -48.97      -1.97       
N           54.35       -49.21      -1.01       
N           55.14       -47.61      0.83        
S           53.75       -48.17      0.22        
H           59.34       -47.89      -0.97       
H           58.57       -49.22      -2.62       
C           58.28       -48.19      -0.92       
C           56.11       -48.08      0.04        
C           57.49       -47.77      0.1         
H           110.9       96.51       77.19       
H           56.29       -50.28      -2.8        
