612

C           43.78       91.35       86.2        
C           44.11       90.38       87.12       
S           42.74       92.42       87.0        
C           42.51       89.88       92.91       
C           42.04       91.09       92.28       
C           41.24       91.97       92.96       
C           40.95       91.56       94.29       
C           41.45       90.45       94.93       
C           42.16       89.56       94.2        
C           39.96       92.21       95.3        
C           40.29       91.54       96.59       
C           41.16       90.43       96.35       
C           43.43       89.07       92.03       
C           43.3        89.86       90.74       
C           42.57       91.02       90.94       
C           39.63       91.65       97.86       
C           40.0        90.72       98.88       
C           40.9        89.75       98.64       
C           41.58       89.56       97.41       
C           43.78       89.56       89.49       
C           43.59       90.44       88.44       
C           42.89       91.65       88.6        
C           42.32       91.91       89.9        
C           40.21       93.77       95.47       
C           38.51       91.74       95.06       
C           44.92       89.04       92.47       
C           42.86       87.66       91.88       
H           42.66       88.72       94.69       
H           40.76       92.88       92.53       
H           44.41       88.71       89.32       
H           41.61       92.73       90.06       
H           38.92       92.43       98.18       
H           42.38       88.8        97.28       
H           39.92       94.26       94.59       
H           39.53       94.1        96.18       
H           41.24952    94.00184    95.70184    
H           38.41       90.71       95.41       
H           37.77       92.32       95.59       
H           38.24951    91.59919    94.01099    
H           42.94       87.1        92.8        
H           41.8        87.65       91.59       
H           43.19013    86.96305    91.10969    
H           44.98       88.52       93.41       
H           45.59       88.5        91.71       
H           45.35771    89.99879    92.74791    
H           38.64       91.25       100.59      
H           44.78       89.63       86.82       
S           41.23       88.87       100.14      
C           39.47       90.64       100.21      
C           40.02       89.7        101.02      
C           45.42       92.22       82.18       
C           45.6        90.94       82.78       
C           44.59       93.09       82.97       
N           46.31       89.93       82.3        
N           45.34       89.39       84.54       
S           46.27       88.76       83.42       
H           43.44       93.56       84.77       
H           44.41       94.16       82.62       
C           44.07       92.82       84.3        
C           45.01       90.61       84.1        
C           44.18       91.54       84.81       
C           54.77       101.1       71.72       
C           53.49       101.44      71.85       
S           55.11       99.5        72.26       
C           50.02       98.23       75.85       
C           51.3        97.69       75.46       
C           51.6        96.45       75.93       
C           50.7        95.74       76.7        
C           49.44       96.27       77.07       
C           49.1        97.6        76.72       
C           50.83       94.26       77.15       
C           49.47       94.1        77.87       
C           48.69       95.29       77.84       
C           49.99       99.65       75.31       
C           51.19       99.64       74.33       
C           51.97       98.51       74.56       
C           49.01       93.05       78.62       
C           47.78       93.11       79.39       
C           47.07       94.32       79.41       
C           47.5        95.42       78.59       
C           51.45       100.53      73.33       
C           52.77       100.49      72.77       
C           53.54       99.3        73.05       
C           53.16       98.23       73.82       
C           51.03       93.34       76.01       
C           51.87       93.97       78.2        
C           48.72       99.97       74.49       
C           50.16       100.69      76.44       
H           48.18       98.0        77.0        
H           52.56       96.0        75.6        
H           50.83       101.42      73.17       
H           53.78       97.41       74.07       
H           49.6        92.15       78.72       
H           46.99       96.37       78.55       
H           52.09       93.27       75.76       
H           50.67       92.37       76.29       
H           50.5068     93.55502    75.07827    
H           52.76       93.69       77.74       
H           51.6        92.96       78.63       
H           51.88445    94.7862     78.9223     
H           49.19       100.61      77.01       
H           50.88       100.32      77.18       
H           50.37169    101.71318   76.12952    
H           47.94       100.19      75.11       
H           48.74       100.89      73.96       
H           48.43269    99.21581    73.75736    
H           47.57       91.21       80.57       
H           53.13       102.41      71.5        
S           45.69       94.25       80.4        
C           47.15       92.19       80.33       
C           46.17       92.72       81.04       
C           58.06       102.87      69.44       
C           56.66       103.31      69.17       
C           58.16       102.02      70.47       
N           56.24       104.29      68.38       
N           54.37       103.38      69.73       
S           54.61       104.5       68.59       
H           57.32       100.77      72.15       
H           59.12       101.6       70.63       
C           57.12       101.49      71.22       
C           55.56       102.88      70.02       
C           55.8        101.81      70.99       
C           71.65       110.22      64.07       
C           71.75       109.11      64.86       
S           70.05       110.45      63.45       
C           66.86       105.66      66.22       
C           66.65       106.66      65.22       
C           65.41       107.06      64.77       
C           64.4        106.28      65.23       
C           64.57       105.27      66.14       
C           65.81       104.87      66.61       
C           62.95       106.45      64.92       
C           62.3        105.39      65.81       
C           63.28       104.69      66.56       
C           68.36       105.75      66.61       
C           68.84       106.88      65.84       
C           67.88       107.38      65.02       
C           61.0        105.08      65.9        
C           60.61       104.33      67.04       
C           61.58       103.77      67.89       
C           62.94       103.83      67.59       
C           70.16       107.27      65.67       
C           70.51       108.38      64.99       
C           69.5        108.97      64.26       
C           68.16       108.51      64.26       
C           62.43       107.82      65.41       
C           62.61       106.21      63.4        
C           68.58       105.99      68.15       
C           69.07       104.51      66.1        
H           66.01       103.97      67.26       
H           65.17       107.91      64.1        
H           70.91       106.78      66.21       
H           67.37       109.03      63.79       
H           60.17       105.58      65.38       
H           63.73       103.38      68.25       
H           61.39       108.01      65.14       
H           62.98       108.52      64.82       
H           62.53144    107.98666   66.4824     
H           63.13       105.33      63.05       
H           61.51       106.0       63.45       
H           62.84449    107.02717   62.71784    
H           68.67       103.72      66.79       
H           70.06       104.71      66.19       
H           68.84354    104.27646   65.05968    
H           68.39       105.11      68.73       
H           69.62       106.14      68.41       
H           68.19011    106.96117   68.45482    
H           58.38       104.4       67.17       
H           72.62       108.8       65.43       
S           60.89       102.93      69.33       
C           59.3        104.08      67.61       
C           59.28       103.38      68.75       
C           74.32       113.8       63.54       
C           74.83       112.49      63.96       
C           72.95       113.77      63.48       
N           76.18       112.2       64.08       
N           74.74       110.26      64.41       
S           76.36       110.6       64.57       
H           71.05       112.8       63.53       
H           72.42       114.64      63.17       
C           72.17       112.58      63.64       
C           73.98       111.29      64.12       
C           72.59       111.29      63.82       
C           80.72       126.46      55.06       
C           79.45       126.5       55.47       
S           81.53       124.96      55.55       
C           77.06       122.01      59.01       
C           78.46       121.89      58.71       
C           79.21       120.86      59.25       
C           78.66       119.96      60.16       
C           77.28       120.03      60.41       
C           76.44       121.05      59.82       
C           79.46       118.86      60.92       
C           78.22       118.1       61.45       
C           76.99       118.88      61.21       
C           76.46       123.39      58.42       
C           77.6        123.77      57.54       
C           78.78       122.95      57.77       
C           78.09       116.9       62.21       
C           76.77       116.44      62.52       
C           75.62       117.18      62.13       
C           75.77       118.45      61.65       
C           77.82       125.01      56.86       
C           79.03       125.34      56.25       
C           80.16       124.41      56.44       
C           80.01       123.27      57.18       
C           80.18       117.86      59.96       
C           80.37       119.28      62.08       
C           75.15       123.12      57.58       
C           76.34       124.52      59.44       
H           75.41       121.2       60.07       
H           80.22       120.66      58.97       
H           77.0        125.76      56.73       
H           80.88       122.67      57.36       
H           78.97       116.31      62.42       
H           74.83       119.05      61.51       
H           81.01       118.32      59.49       
H           80.62       117.02      60.53       
H           79.48859    117.50018   59.19804    
H           79.68       119.58      62.87       
H           81.0        118.45      62.38       
H           80.98518    120.14126   61.81945    
H           75.98       125.37      58.96       
H           77.24       124.85      59.94       
H           75.64607    124.28168   60.24608    
H           74.54       122.59      58.29       
H           74.66       124.1       57.31       
H           75.29128    122.47718   56.71114    
H           77.04       114.46      63.69       
H           78.8        127.37      55.29       
S           74.13       116.33      62.5        
C           76.39       115.21      63.19       
C           75.09       114.95      63.06       
C           82.94       129.46      52.54       
C           82.62       129.77      53.88       
C           82.63       128.14      52.22       
N           82.7        131.01      54.41       
N           81.22       129.44      55.71       
S           81.81       131.01      55.79       
H           81.85       126.07      52.69       
H           82.83       127.81      51.24       
C           82.05       127.09      53.05       
C           81.74       128.86      54.61       
C           81.57       127.44      54.33       
C           86.28       139.05      39.58       
C           85.42       137.94      39.55       
S           86.77       139.35      41.26       
C           84.04       134.73      44.5        
C           84.96       135.77      44.7        
C           85.44       136.07      46.0        
C           85.12       135.17      47.02       
C           84.34       134.03      46.68       
C           83.71       133.86      45.44       
C           85.49       135.32      48.51       
C           84.99       133.89      48.97       
C           84.32       133.18      47.89       
C           83.62       134.62      43.01       
C           84.32       135.82      42.43       
C           85.05       136.47      43.44       
C           84.89       133.42      50.21       
C           84.31       132.2       50.42       
C           83.66       131.55      49.37       
C           83.62       131.99      48.04       
C           84.41       136.24      41.12       
C           85.28       137.3       40.87       
C           85.8        138.04      41.93       
C           85.73       137.64      43.24       
C           87.0        135.52      48.63       
C           84.54       136.33      49.27       
C           84.09       133.26      42.37       
C           82.05       134.68      42.94       
H           83.02       133.0       45.22       
H           86.07       136.95      46.14       
H           83.91       135.71      40.27       
H           86.33       138.13      43.94       
H           85.38       133.93      51.05       
H           83.05       131.51      47.26       
H           87.11       136.31      49.4        
H           87.41       135.86      47.72       
H           87.55965    134.64864   48.97004    
H           83.48       136.13      49.11       
H           84.72       136.22      50.31       
H           84.67232    137.36764   48.96358    
H           81.51       133.92      43.48       
H           81.69       135.6       43.38       
H           81.61724    134.66581   41.93969    
H           83.79       133.2       41.28       
H           83.44       132.56      42.89       
H           85.15299    133.02922   42.43993    
H           84.61       131.81      52.61       
H           84.97       137.58      38.67       
S           82.89       130.09      49.99       
C           84.23       131.45      51.68       
C           83.56       130.31      51.6        
C           88.26       140.87      36.1        
C           87.95       141.69      37.22       
C           87.73       139.61      36.14       
N           88.15       143.0       37.27       
N           87.26       141.99      39.42       
S           87.83       143.45      38.84       
H           86.86       138.08      37.24       
H           87.97       138.82      35.38       
C           87.07       139.16      37.26       
C           87.35       141.15      38.42       
C           86.85       139.81      38.45       
C           97.7        142.51      22.71       
C           97.16       141.31      23.14       
S           96.94       143.87      23.48       
C           93.37       140.95      27.87       
C           93.67       142.29      27.51       
C           93.06       143.37      28.09       
C           92.16       143.19      29.11       
C           92.03       141.87      29.61       
C           92.53       140.74      28.97       
C           91.3        144.21      29.92       
C           90.97       143.31      31.15       
C           91.25       141.92      30.77       
C           94.01       139.93      26.94       
C           94.91       140.84      26.16       
C           94.61       142.22      26.41       
C           90.18       143.6       32.23       
C           89.79       142.5       33.02       
C           90.05       141.16      32.69       
C           90.79       140.82      31.55       
C           95.68       140.46      25.11       
C           96.3        141.47      24.29       
C           96.12       142.8       24.62       
C           95.23       143.16      25.63       
C           92.02       145.47      30.26       
C           89.97       144.53      29.15       
C           94.75       138.81      27.74       
C           93.02       139.34      25.88       
H           92.36       139.72      29.37       
H           93.15       144.35      27.66       
H           95.89       139.37      24.95       
H           94.97       144.19      25.78       
H           89.84       144.69      32.44       
H           91.13       139.81      31.34       
H           92.21       146.01      29.32       
H           91.37       146.19      30.74       
H           92.93947    145.34976   30.8329     
H           89.21       143.87      29.52       
H           89.72       145.6       29.3        
H           90.05052    144.37627   28.0739     
H           93.5        138.57      25.39       
H           92.63       140.1       25.22       
H           92.15155    138.81893   26.28296    
H           94.14       138.12      28.28       
H           95.25       138.12      27.01       
H           95.42366    139.23283   28.48532    
H           88.8        143.37      34.75       
H           97.3        140.34      22.66       
S           89.47       140.0       33.83       
C           89.1        142.5       34.31       
C           88.83       141.28      34.87       
C           100.36      143.32      19.25       
C           99.99       141.99      19.58       
C           99.87       144.24      20.07       
N           100.36      140.88      18.96       
N           99.03       140.44      20.93       
S           99.65       139.61      19.66       
H           98.75       144.84      21.75       
H           100.12      145.32      19.93       
C           99.0        143.97      21.17       
C           99.17       141.72      20.69       
C           98.61       142.71      21.55       
C           107.63      146.73      4.68        
C           106.35      146.26      4.86        
S           108.28      147.44      6.19        
C           103.59      145.63      10.23       
C           104.83      146.31      10.35       
C           105.28      146.73      11.58       
C           104.62      146.39      12.69       
C           103.42      145.62      12.6        
C           102.83      145.27      11.33       
C           104.87      146.79      14.18       
C           103.79      145.91      14.83       
C           102.96      145.24      13.92       
C           103.39      145.13      8.8         
C           104.46      145.83      8.08        
C           105.37      146.47      8.96        
C           103.62      145.73      16.22       
C           102.59      144.86      16.63       
C           101.72      144.2       15.66       
C           101.89      144.44      14.28       
C           104.67      145.84      6.71        
C           105.9       146.29      6.2         
C           106.78      146.96      7.06        
C           106.51      147.08      8.48        
C           106.29      146.24      14.67       
C           104.63      148.29      14.62       
C           103.43      143.59      8.76        
C           101.95      145.66      8.39        
H           102.1       144.55      11.24       
H           106.21      147.37      11.67       
H           104.0       145.4       6.04        
H           107.17      147.54      9.21        
H           104.41      145.98      16.97       
H           101.36      143.96      13.46       
H           107.11      146.73      14.12       
H           106.45      146.26      15.75       
H           106.39873   145.16722   14.51053    
H           103.63      148.61      14.33       
H           104.62      148.36      15.71       
H           105.35808   149.00351   14.23412    
H           101.19      144.93      8.79        
H           101.9       145.47      7.37        
H           101.58086   146.60819   8.78086     
H           102.39      143.3       8.73        
H           103.83      143.2       9.75        
H           104.06422   143.1792    7.97444     
H           102.76      144.92      18.83       
H           105.75      145.78      4.13        
S           100.66      143.06      16.51       
C           102.22      144.52      17.94       
C           101.17      143.68      18.09       
C           110.46      147.15      1.33        
C           109.04      147.22      1.08        
C           110.79      147.04      2.67        
N           108.43      147.37      -0.09       
N           106.8       147.12      1.72        
S           106.79      147.3       0.08        
H           110.2       147.19      4.71        
H           111.84      147.14      2.97        
C           109.85      147.02      3.69        
C           108.03      147.13      2.2         
C           108.49      146.96      3.53        
C           124.85      152.1       -4.76       
C           124.73      151.08      -3.85       
S           123.27      152.41      -5.45       
C           119.25      148.76      -2.32       
C           119.24      149.79      -3.29       
C           118.05      150.23      -3.8        
C           116.89      149.82      -3.26       
C           116.88      148.77      -2.32       
C           118.05      148.16      -1.93       
C           115.49      150.4       -3.35       
C           114.7       149.45      -2.45       
C           115.55      148.47      -1.93       
C           120.69      148.51      -1.75       
C           121.5       149.45      -2.65       
C           120.6       150.18      -3.52       
C           113.32      149.43      -2.12       
C           112.92      148.46      -1.13       
C           113.9       147.52      -0.63       
C           115.2       147.55      -0.98       
C           122.84      149.68      -2.69       
C           123.34      150.65      -3.61       
C           122.45      151.28      -4.47       
C           121.05      151.12      -4.39       
C           115.41      151.9       -2.79       
C           115.02      150.32      -4.84       
C           120.88      148.84      -0.22       
C           121.18      147.13      -2.16       
H           118.09      147.33      -1.24       
H           118.0       151.08      -4.42       
H           123.56      149.14      -2.07       
H           120.35      151.72      -4.95       
H           112.61      150.18      -2.45       
H           115.92      147.02      -0.36       
H           114.79      152.54      -3.37       
H           116.41      152.3       -2.94       
H           115.20057   151.94333   -1.72119    
H           115.67      150.99      -5.38       
H           114.07      150.71      -4.86       
H           115.0547    149.34144   -5.31887    
H           122.25      147.13      -2.01       
H           120.9       146.93      -3.2        
H           120.82844   146.32434   -1.51547    
H           121.74      148.35      0.23        
H           120.05      148.49      0.31        
H           120.88699   149.91698   -0.05216    
H           110.78      148.94      -0.86       
H           125.54      150.6       -3.36       
S           113.11      146.53      0.61        
C           111.61      148.29      -0.56       
C           111.6       147.4       0.45        
C           128.29      154.53      -6.22       
C           128.44      153.51      -5.24       
C           126.97      154.81      -6.54       
N           129.62      153.23      -4.61       
N           127.81      151.73      -3.97       
S           129.37      152.01      -3.57       
H           124.87      154.28      -6.43       
H           126.84      155.54      -7.31       
C           125.85      154.03      -6.08       
C           127.35      152.66      -4.85       
C           126.0       152.88      -5.26       
C           140.61      156.91      -16.15      
C           139.4       156.52      -16.62      
S           140.61      157.84      -14.68      
C           134.53      157.42      -13.03      
C           135.8       157.78      -12.42      
C           135.84      158.34      -11.16      
C           134.74      158.1       -10.28      
C           133.53      157.64      -10.85      
C           133.42      157.4       -12.27      
C           134.72      157.76      -8.74       
C           133.27      157.18      -8.67       
C           132.55      157.23      -9.85       
C           134.73      157.08      -14.52      
C           136.27      157.23      -14.66      
C           136.82      157.72      -13.5       
C           132.71      156.85      -7.45       
C           131.38      156.32      -7.52       
C           130.7       156.2       -8.81       
C           131.26      156.76      -9.94       
C           136.95      156.83      -15.82      
C           138.4       157.01      -15.74      
C           138.87      157.67      -14.58      
C           138.1       158.14      -13.55      
C           135.93      156.79      -8.5        
C           134.76      159.03      -7.83       
C           134.32      155.59      -14.85      
C           134.14      158.14      -15.48      
H           132.44      157.28      -12.65      
H           136.73      158.76      -10.71      
H           136.41      156.28      -16.59      
H           138.53      158.6       -12.7       
H           133.25      156.74      -6.52       
H           130.8       156.71      -10.94      
H           136.83      157.27      -8.76       
H           136.03      156.62      -7.41       
H           135.85581   155.84581   -9.03954    
H           133.78      159.53      -7.82       
H           134.89      158.7       -6.82       
H           135.45666   159.81026   -8.13653    
H           134.66      158.06      -16.51      
H           134.47      159.06      -15.05      
H           133.05735   158.04407   -15.56223   
H           133.27      155.52      -14.55      
H           134.32      155.44      -15.94      
H           134.93174   154.85734   -14.32362   
H           131.03      155.41      -5.49       
H           139.17      155.98      -17.51      
S           129.11      155.64      -8.58       
C           130.61      155.7       -6.52       
C           129.38      155.29      -6.87       
C           144.85      155.87      -16.69      
C           144.44      157.21      -16.45      
C           143.79      154.99      -16.71      
N           145.36      158.21      -16.33      
N           142.89      158.89      -16.5       
S           144.38      159.56      -16.66      
H           141.71      154.5       -16.51      
H           143.95      153.92      -16.87      
C           142.42      155.32      -16.69      
C           143.03      157.62      -16.52      
C           142.0       156.6       -16.55      
C           159.45      148.42      -20.01      
C           158.25      147.92      -20.35      
S           159.19      149.88      -19.05      
C           152.94      150.36      -18.77      
C           154.06      151.17      -18.5       
C           154.0       152.41      -17.85      
C           152.7       152.88      -17.54      
C           151.53      152.04      -17.84      
C           151.67      150.79      -18.44      
C           152.29      154.29      -17.12      
C           150.78      154.18      -17.14      
C           150.35      152.87      -17.48      
C           153.38      149.3       -19.81      
C           154.86      149.25      -19.57      
C           155.25      150.44      -18.92      
C           149.86      155.17      -16.86      
C           148.5       154.89      -16.98      
C           148.09      153.62      -17.38      
C           149.02      152.55      -17.65      
C           155.77      148.34      -20.06      
C           157.13      148.68      -19.96      
C           157.47      149.86      -19.31      
C           156.59      150.76      -18.78      
C           152.99      154.48      -15.75      
C           152.7       155.36      -18.19      
C           152.93      147.9       -19.35      
C           153.13      149.69      -21.34      
H           150.81      150.23      -18.84      
H           154.86      153.16      -17.68      
H           155.46      147.47      -20.57      
H           156.91      151.61      -18.26      
H           150.12      156.13      -16.48      
H           148.76      151.52      -17.91      
H           154.09      154.75      -15.95      
H           152.94      153.62      -15.1       
H           152.53793   155.28368   -15.16877   
H           153.74      155.3       -18.29      
H           152.51      156.42      -17.8       
H           152.20496   155.14784   -19.13764   
H           152.78      148.86      -21.95      
H           154.11      150.05      -21.73      
H           152.40955   150.50411   -21.41925   
H           151.92      147.91      -19.64      
H           153.28      146.96      -19.85      
H           152.9515    147.771     -18.26787   
H           147.57      156.81      -16.31      
H           158.18      146.97      -20.82      
S           146.35      153.66      -17.49      
C           147.4       155.83      -16.72      
C           146.19      155.27      -16.87      
C           163.62      147.13      -20.86      
C           162.57      146.19      -20.87      
C           163.24      148.37      -20.43      
N           162.82      145.04      -21.36      
N           160.39      145.43      -20.77      
S           161.36      144.25      -21.38      
H           161.8       149.74      -19.84      
H           163.9       149.23      -20.61      
C           161.89      148.69      -20.17      
C           161.16      146.52      -20.56      
C           160.79      147.9       -20.22      
H           39.89       89.67       102.09      
H           164.56      147.04      -21.38      
