612

C           0.95        86.56       94.28       
C           1.35        87.76       94.77       
S           1.68        85.28       95.21       
C           4.9         88.32       99.75       
C           4.71        86.99       99.36       
C           5.22        85.94       100.05      
C           6.05        86.18       101.13      
C           6.34        87.52       101.53      
C           5.71        88.65       100.86      
C           6.7         85.17       102.09      
C           7.41        86.08       103.09      
C           7.22        87.44       102.77      
C           4.15        89.35       98.88       
C           3.61        88.41       97.85       
C           3.84        87.0        98.16       
C           8.16        85.76       104.16      
C           8.67        86.81       104.94      
C           8.48        88.17       104.63      
C           7.82        88.47       103.48      
C           2.85        88.69       96.75       
C           2.25        87.64       95.91       
C           2.57        86.35       96.23       
C           3.37        85.99       97.31       
C           5.62        84.23       102.72      
C           7.83        84.43       101.4       
C           3.12        90.08       99.73       
C           5.2         90.3        98.23       
H           5.85        89.66       101.17      
H           4.98        84.96       99.84       
H           2.57        89.72       96.5        
H           3.68        84.95       97.35       
H           8.42        84.76       104.3       
H           7.65        89.49       103.14      
H           4.91        83.82       101.96      
H           5.03        84.89       103.36      
H           5.93376     83.50265    103.46874   
H           8.41        85.35       101.01      
H           8.41        83.91       102.1       
H           7.55821     83.75053    100.59219   
H           5.89        89.65       97.66       
H           5.83        90.78       99.02       
H           4.81213     91.10446    97.6051     
H           3.63        90.82       100.3       
H           2.4         90.59       99.12       
H           2.54666     89.39341    100.35288   
H           9.61        85.82       106.61      
H           0.94        88.68       94.4        
S           9.33        89.24       105.74      
C           9.4         86.74       106.16      
C           9.83        87.88       106.64      
C           -2.61       85.53       91.79       
C           -1.39       84.68       91.78       
C           -2.37       86.7        92.44       
N           -1.23       83.45       91.17       
N           0.72        84.07       92.53       
S           0.23        82.84       91.6        
H           -1.02       88.07       93.59       
H           -3.08       87.49       92.46       
C           -1.14       87.08       93.12       
C           -0.21       85.03       92.6        
C           -0.08       86.22       93.28       
C           -17.95      79.85       88.38       
C           -16.85      79.09       88.06       
S           -17.52      81.57       88.62       
C           -11.06      81.3        88.69       
C           -12.1       82.25       88.87       
C           -11.85      83.56       89.26       
C           -10.54      83.96       89.33       
C           -9.46       83.08       88.95       
C           -9.73       81.76       88.57       
C           -9.96       85.17       89.94       
C           -8.46       85.16       89.62       
C           -8.21       83.84       89.13       
C           -11.65      79.92       88.19       
C           -13.2       80.28       88.2        
C           -13.44      81.6        88.57       
C           -7.44       86.06       90.02       
C           -6.1        85.47       90.18       
C           -5.89       84.12       89.76       
C           -6.88       83.35       89.13       
C           -14.24      79.39       88.01       
C           -15.62      79.8        88.14       
C           -15.79      81.19       88.36       
C           -14.75      82.15       88.48       
C           -10.61      86.37       89.13       
C           -10.2       85.44       91.5        
C           -11.16      79.64       86.77       
C           -11.31      78.71       89.1        
H           -8.95       81.05       88.61       
H           -12.64      84.27       89.46       
H           -14.04      78.37       87.79       
H           -15.0       83.2        88.69       
H           -7.72       87.03       90.36       
H           -6.69       82.34       88.85       
H           -11.71      86.28       89.16       
H           -10.41      87.37       89.56       
H           -10.3292    86.34894    88.077      
H           -9.64       84.69       91.97       
H           -9.7        86.44       91.61       
H           -11.23468   85.48341    91.84007    
H           -11.5       77.77       88.57       
H           -12.09      78.81       89.85       
H           -10.35001   78.68851    89.61581    
H           -10.06      79.58       86.94       
H           -11.63      78.76       86.33       
H           -11.43572   80.45302    86.09838    
H           -5.07       87.0        91.38       
H           -16.9       78.04       87.92       
S           -4.21       83.76       90.17       
C           -4.95       86.08       90.84       
C           -3.88       85.24       91.05       
C           -21.76      78.24       89.92       
C           -21.74      79.14       88.8        
C           -20.53      77.84       90.35       
N           -22.76      79.73       88.22       
N           -20.55      80.45       87.23       
S           -22.16      80.65       86.99       
H           -18.38      78.04       90.23       
H           -20.47      77.17       91.26       
C           -19.32      78.37       89.82       
C           -20.5       79.71       88.34       
C           -19.24      79.31       88.8        
C           -30.77      66.91       96.11       
C           -29.68      67.49       96.81       
S           -31.71      68.19       95.3        
C           -27.64      73.03       95.64       
C           -28.8       72.66       94.91       
C           -29.26      73.42       93.77       
C           -28.4       74.44       93.31       
C           -27.21      74.73       94.05       
C           -26.87      74.06       95.18       
C           -28.34      74.86       91.85       
C           -27.08      75.68       91.89       
C           -26.41      75.6        93.16       
C           -27.2       71.86       96.53       
C           -28.38      70.93       96.42       
C           -29.3       71.37       95.43       
C           -26.41      76.32       90.81       
C           -25.09      76.76       91.01       
C           -24.45      76.66       92.28       
C           -25.13      76.05       93.37       
C           -28.5       69.67       96.99       
C           -29.59      68.9        96.56       
C           -30.56      69.38       95.64       
C           -30.45      70.65       95.09       
C           -28.21      73.69       90.85       
C           -29.49      75.73       91.48       
C           -25.94      71.21       95.95       
C           -27.03      72.42       98.0        
H           -25.91      74.23       95.73       
H           -30.01      73.01       93.12       
H           -27.8       69.17       97.69       
H           -31.23      71.09       94.49       
H           -26.93      76.41       89.85       
H           -24.67      75.98       94.36       
H           -28.98      72.86       90.99       
H           -28.5       73.94       89.88       
H           -27.21445   73.24994    90.90771    
H           -29.32      76.66       92.02       
H           -29.55      75.92       90.41       
H           -30.46809   75.34601    91.7698     
H           -26.31      73.24       98.01       
H           -27.9       72.94       98.34       
H           -26.77227   71.68163    98.75927    
H           -25.11      71.87       96.21       
H           -25.65      70.35       96.58       
H           -26.01753   70.95627    94.89278    
H           -24.38      77.73       89.07       
H           -28.97      66.9        97.39       
S           -22.8       77.23       92.31       
C           -24.14      77.36       90.06       
C           -22.93      77.67       90.58       
C           -31.43      62.55       96.23       
C           -31.97      63.27       95.14       
C           -30.84      63.35       97.21       
N           -32.69      62.79       94.17       
N           -32.33      65.18       93.88       
S           -32.96      63.92       93.08       
H           -30.45      65.37       97.98       
H           -30.55      62.78       98.11       
C           -30.8       64.77       97.18       
C           -31.76      64.73       95.0        
C           -31.05      65.47       96.02       
C           -26.28      47.08       98.97       
C           -26.83      47.78       99.96       
S           -26.9       47.5        97.4        
C           -29.59      53.1        98.7        
C           -29.32      52.3        97.59       
C           -29.65      52.87       96.34       
C           -30.14      54.18       96.17       
C           -30.19      54.95       97.32       
C           -30.0       54.42       98.61       
C           -30.16      55.11       94.97       
C           -30.59      56.46       95.55       
C           -30.47      56.36       96.96       
C           -29.1       52.41       100.0       
C           -28.65      51.05       99.45       
C           -28.7       51.05       98.05       
C           -30.9       57.67       94.89       
C           -31.09      58.8        95.66       
C           -30.91      58.68       97.04       
C           -30.62      57.49       97.71       
C           -28.16      49.95       100.16      
C           -27.6       48.9        99.43       
C           -27.65      49.0        98.04       
C           -28.25      49.99       97.31       
C           -28.76      55.15       94.24       
C           -31.32      54.77       93.97       
C           -27.9       53.15       100.64      
C           -30.2       52.27       101.05      
H           -30.13      55.05       99.45       
H           -29.38      52.3        95.4        
H           -28.13      49.98       101.25      
H           -28.39      49.99       96.18       
H           -30.78      57.9        93.84       
H           -30.52      57.53       98.79       
H           -28.48      54.18       94.02       
H           -28.6       55.83       93.44       
H           -27.91484   55.29325    94.91326    
H           -32.2       55.12       94.48       
H           -31.12      55.46       93.12       
H           -31.38949   53.73462    93.63645    
H           -30.06      53.07       101.76      
H           -30.13      51.24       101.49      
H           -31.19338   52.35395    100.60927   
H           -27.88      52.86       101.65      
H           -27.89      54.25       100.43      
H           -26.94554   52.83185    100.22062   
H           -31.15      60.43       94.23       
H           -26.48      47.71       100.98      
S           -31.26      60.26       97.68       
C           -31.17      60.18       95.26       
C           -31.24      61.12       96.2        
C           -23.37      43.9        99.11       
C           -24.36      43.94       100.09      
C           -23.55      44.77       98.05       
N           -24.37      43.18       101.16      
N           -26.2       44.84       101.16      
S           -25.65      43.62       102.06      
H           -24.47      46.46       97.27       
H           -22.75      44.9        97.36       
C           -24.54      45.75       98.02       
C           -25.42      44.92       100.05      
C           -25.49      45.9        98.98       
C           -10.72      33.71       95.54       
C           -10.89      34.9        94.99       
S           -11.92      33.36       96.8        
C           -15.27      38.74       96.62       
C           -15.2       37.63       97.41       
C           -16.14      37.38       98.47       
C           -17.15      38.36       98.73       
C           -17.23      39.39       97.83       
C           -16.32      39.63       96.76       
C           -18.38      38.21       99.69       
C           -19.18      39.4        99.16       
C           -18.41      40.15       98.17       
C           -14.1       38.89       95.66       
C           -13.36      37.54       95.93       
C           -14.11      36.83       96.92       
C           -20.36      39.91       99.76       
C           -20.79      41.16       99.23       
C           -20.19      41.81       98.17       
C           -18.96      41.42       97.68       
C           -12.16      37.02       95.34       
C           -11.87      35.7        95.68       
C           -12.65      34.97       96.63       
C           -13.76      35.5        97.29       
C           -19.09      36.85       99.53       
C           -18.16      38.55       101.2       
C           -14.62      38.87       94.22       
C           -13.13      40.08       95.93       
H           -16.37      40.49       96.15       
H           -16.06      36.5        99.11       
H           -11.62      37.54       94.54       
H           -14.32      34.97       98.08       
H           -20.89      39.35       100.57      
H           -18.55      42.07       96.92       
H           -18.43      36.03       99.8        
H           -19.93      36.85       100.25      
H           -19.55053   36.67456    98.55777    
H           -17.91      39.62       101.35      
H           -19.08      38.52       101.78      
H           -17.3694    37.98529    101.69412   
H           -12.39      40.08       95.21       
H           -12.57      39.87       96.82       
H           -13.61964   41.05218    95.98677    
H           -15.05      39.81       93.89       
H           -13.79      38.61       93.57       
H           -15.41392   38.13931    94.06543    
H           -22.55      41.39       100.4       
H           -10.26      35.28       94.2        
S           -20.99      43.35       97.93       
C           -21.94      41.83       99.7        
C           -22.28      42.99       99.09       
C           -8.9        30.06       93.84       
C           -8.65       31.34       93.21       
C           -9.48       30.15       95.12       
N           -8.02       31.49       92.08       
N           -8.71       33.66       93.04       
S           -7.99       33.11       91.69       
H           -10.44      31.32       96.72       
H           -9.7        29.24       95.73       
C           -9.89       31.4        95.74       
C           -9.11       32.55       93.8        
C           -9.9        32.59       95.06       
C           -9.47       13.95       92.74       
C           -8.95       14.71       93.78       
S           -9.53       14.91       91.23       
C           -7.15       20.45       93.19       
C           -7.88       19.92       92.09       
C           -8.38       20.77       91.09       
C           -8.28       22.14       91.25       
C           -7.59       22.67       92.42       
C           -6.9        21.86       93.29       
C           -8.78       23.25       90.31       
C           -8.49       24.48       91.19       
C           -7.74       24.13       92.38       
C           -6.84       19.38       94.25       
C           -7.44       18.15       93.52       
C           -7.89       18.49       92.21       
C           -8.94       25.74       90.96       
C           -8.7        26.71       92.0        
C           -7.88       26.3        93.12       
C           -7.37       25.04       93.27       
C           -7.65       16.84       94.08       
C           -8.31       15.94       93.28       
C           -8.68       16.29       91.92       
C           -8.47       17.57       91.39       
C           -7.89       23.12       89.06       
C           -10.31      22.99       90.01       
C           -5.34       19.34       94.37       
C           -7.62       19.74       95.58       
H           -6.15       22.28       93.96       
H           -8.88       20.34       90.22       
H           -7.39       16.63       95.13       
H           -9.03       17.92       90.47       
H           -9.46       25.96       90.02       
H           -6.78       24.73       94.15       
H           -8.22       22.26       88.44       
H           -6.88       23.06       89.41       
H           -7.92588    23.98109    88.39266    
H           -10.47      22.05       89.54       
H           -10.72      23.66       89.31       
H           -10.8517    22.86499    90.94757    
H           -8.65       19.71       95.46       
H           -7.47       20.77       95.73       
H           -7.29729    19.10861    96.40783    
H           -5.12       19.95       95.28       
H           -4.85       19.85       93.49       
H           -4.91188    18.35257    94.54263    
H           -9.59       28.55       91.31       
H           -8.86       14.37       94.79       
S           -7.87       27.64       94.31       
C           -9.04       28.11       92.11       
C           -8.77       28.72       93.3        
C           -12.61      10.91       93.37       
C           -11.68      10.81       92.23       
C           -12.36      11.99       94.21       
N           -11.66      9.82        91.31       
N           -9.9        11.5        90.89       
S           -10.57      10.24       90.16       
H           -11.17      13.68       94.66       
H           -12.94      12.13       95.15       
C           -11.24      12.91       93.94       
C           -10.61      11.76       92.03       
C           -10.35      12.82       92.96       
C           -27.47      4.0         94.89       
C           -27.19      5.29        95.26       
S           -25.98      3.1         94.82       
C           -21.41      7.4         95.65       
C           -21.61      6.12        95.07       
C           -20.59      5.43        94.44       
C           -19.31      6.04        94.42       
C           -19.21      7.27        94.98       
C           -20.21      7.96        95.64       
C           -18.04      5.52        93.71       
C           -17.14      6.72        94.0        
C           -17.82      7.74        94.76       
C           -22.75      8.03        95.98       
C           -23.76      6.9         95.73       
C           -23.02      5.75        95.36       
C           -15.88      6.99        93.5        
C           -15.21      8.22        93.86       
C           -15.92      9.21        94.56       
C           -17.15      8.95        95.05       
C           -25.14      6.84        95.78       
C           -25.81      5.59        95.55       
C           -25.01      4.52        95.21       
C           -23.66      4.49        95.14       
C           -17.37      4.29        94.33       
C           -18.38      5.32        92.24       
C           -22.64      8.31        97.5        
C           -23.21      9.19        95.11       
H           -20.06      8.92        96.04       
H           -20.76      4.37        94.16       
H           -25.78      7.72        95.99       
H           -23.07      3.56        94.85       
H           -15.31      6.25        92.91       
H           -17.68      9.79        95.53       
H           -17.96      3.42        94.26       
H           -16.57      4.0         93.63       
H           -16.96518   4.40865     95.33506    
H           -18.9       6.21        91.83       
H           -17.38      5.37        91.78       
H           -18.69232   4.31916     91.94188    
H           -24.18      9.48        95.46       
H           -23.39      8.79        94.12       
H           -22.53507   10.04443    95.05974    
H           -21.89      9.11        97.59       
H           -22.34      7.46        98.01       
H           -23.57703   8.63167     97.95453    
H           -13.31      8.25        92.64       
H           -28.0       6.06        95.17       
S           -14.97      10.65       94.75       
C           -13.89      8.69        93.42       
C           -13.68      9.99        93.76       
C           -30.92      2.13        92.8        
C           -31.06      3.42        93.32       
C           -29.71      1.55        93.04       
N           -32.07      4.27        93.21       
N           -30.28      5.26        94.49       
S           -31.65      5.71        93.8        
H           -27.68      1.61        93.79       
H           -29.52      0.58        92.55       
C           -28.67      2.11        93.87       
C           -30.0       3.98        94.14       
C           -28.72      3.38        94.34       
C           -40.25      -7.4        82.9        
C           -38.91      -7.39       82.76       
S           -40.82      -5.92       83.63       
C           -35.5       -3.4        86.05       
C           -36.9       -3.01       85.91       
C           -37.4       -2.03       86.7        
C           -36.56      -1.27       87.46       
C           -35.19      -1.54       87.51       
C           -34.65      -2.6        86.81       
C           -36.92      -0.18       88.47       
C           -35.54      0.14        89.11       
C           -34.57      -0.77       88.61       
C           -35.23      -4.58       85.09       
C           -36.56      -4.75       84.41       
C           -37.6       -3.94       85.08       
C           -35.21      1.02        90.11       
C           -33.98      0.91        90.71       
C           -32.98      -0.02       90.28       
C           -33.31      -0.84       89.14       
C           -36.89      -5.87       83.6        
C           -38.25      -6.26       83.44       
C           -39.22      -5.39       84.03       
C           -38.91      -4.19       84.81       
C           -37.47      1.05        87.72       
C           -37.9       -0.71       89.55       
C           -34.21      -4.44       83.92       
C           -34.84      -5.89       85.86       
H           -33.62      -2.91       86.98       
H           -38.49      -1.78       86.68       
H           -36.05      -6.48       83.21       
H           -39.75      -3.61       85.3        
H           -35.87      1.77        90.5        
H           -32.61      -1.58       88.69       
H           -38.26      1.46        88.36       
H           -38.07      0.56        86.94       
H           -36.76339   1.77103     87.30901    
H           -38.89      -0.5        89.27       
H           -37.71      -0.05       90.43       
H           -37.78705   -1.75478    89.83943    
H           -34.71      -6.61       85.14       
H           -35.67      -6.12       86.51       
H           -33.98247   -5.86256    86.5323     
H           -33.95      -5.39       83.53       
H           -33.33      -4.07       84.34       
H           -34.5172    -3.68986    83.19129    
H           -33.76      2.58        92.26       
H           -38.38      -8.14       82.22       
S           -31.35      0.21        90.92       
C           -33.32      1.7         91.76       
C           -31.98      1.44        92.0        
C           -43.04      -9.92       80.57       
C           -43.41      -9.28       81.74       
C           -41.73      -9.65       80.23       
N           -44.61      -9.52       82.32       
N           -43.15      -8.06       83.69       
S           -44.65      -8.6        83.69       
H           -39.85      -8.58       80.72       
H           -41.32      -10.04      79.3        
C           -40.85      -8.79       81.03       
C           -42.54      -8.47       82.59       
C           -41.18      -8.27       82.26       
C           -52.27      -22.01      73.94       
C           -50.86      -21.99      74.1        
S           -52.92      -20.5       74.52       
C           -47.61      -17.0       75.55       
C           -49.08      -16.76      75.47       
C           -49.55      -15.52      75.85       
C           -48.68      -14.5       76.24       
C           -47.29      -14.73      76.33       
C           -46.78      -15.95      75.94       
C           -49.02      -13.26      77.07       
C           -47.63      -12.65      77.41       
C           -46.68      -13.58      76.96       
C           -47.33      -18.48      75.47       
C           -48.68      -18.96      74.96       
C           -49.72      -18.02      75.16       
C           -47.25      -11.57      78.17       
C           -45.89      -11.38      78.59       
C           -44.93      -12.28      78.11       
C           -45.3       -13.32      77.26       
C           -49.02      -20.31      74.63       
C           -50.34      -20.68      74.45       
C           -51.34      -19.73      74.61       
C           -51.06      -18.36      74.94       
C           -49.86      -12.22      76.17       
C           -49.75      -13.53      78.42       
C           -46.31      -18.66      74.29       
C           -46.88      -19.19      76.8        
H           -45.72      -16.15      75.97       
H           -50.6       -15.28      75.83       
H           -48.23      -21.03      74.6        
H           -51.9       -17.64      74.97       
H           -48.06      -10.85      78.32       
H           -44.49      -13.96      76.86       
H           -50.71      -11.81      76.67       
H           -50.38      -12.76      75.36       
H           -49.27755   -11.42183   75.7098     
H           -49.23      -14.12      79.17       
H           -49.92      -12.56      78.89       
H           -50.73255   -13.9824    78.28569    
H           -45.8       -19.08      76.94       
H           -46.99      -20.27      76.69       
H           -47.53883   -19.0129    77.6501     
H           -45.4       -18.15      74.64       
H           -46.13      -19.7       74.28       
H           -46.72747   -18.34159   73.33478    
H           -45.81      -9.67       80.06       
H           -50.21      -22.86      73.92       
S           -43.34      -11.94      78.86       
C           -45.3       -10.44      79.55       
C           -43.92      -10.56      79.67       
C           -55.16      -25.27      74.22       
C           -53.73      -25.56      74.23       
C           -55.5       -23.99      73.91       
N           -53.18      -26.76      74.42       
N           -51.53      -24.94      74.04       
S           -51.54      -26.55      74.3        
H           -54.91      -21.91      73.69       
H           -56.54      -23.75      73.87       
C           -54.55      -22.92      73.87       
C           -52.82      -24.54      73.99       
C           -53.17      -23.1       73.86       
C           -64.63      -39.0       74.61       
C           -63.27      -38.94      74.31       
S           -65.21      -37.41      75.0        
C           -59.87      -33.84      74.35       
C           -61.23      -33.61      74.76       
C           -61.66      -32.41      75.22       
C           -60.71      -31.42      75.37       
C           -59.47      -31.53      74.74       
C           -59.0       -32.76      74.24       
C           -60.88      -29.97      75.85       
C           -59.52      -29.37      75.48       
C           -58.76      -30.3       74.72       
C           -59.6       -35.34      73.96       
C           -60.96      -35.92      74.25       
C           -61.93      -34.91      74.64       
C           -59.03      -28.14      75.74       
C           -57.83      -27.79      75.12       
C           -57.22      -28.63      74.13       
C           -57.65      -29.92      74.03       
C           -61.4       -37.25      74.14       
C           -62.68      -37.61      74.44       
C           -63.62      -36.64      74.86       
C           -63.26      -35.2       74.91       
C           -62.08      -29.3       75.16       
C           -60.92      -29.94      77.37       
C           -59.25      -35.31      72.42       
C           -58.66      -36.29      74.8        
H           -57.93      -32.76      73.85       
H           -62.71      -32.33      75.64       
H           -60.71      -38.02      73.64       
H           -63.96      -34.41      75.24       
H           -59.6       -27.44      76.37       
H           -57.18      -30.57      73.29       
H           -62.94      -29.9       75.44       
H           -62.22      -28.33      75.67       
H           -61.98024   -29.22874   74.07692    
H           -60.01      -30.36      77.81       
H           -61.0       -28.9       77.65       
H           -61.72041   -30.47361   77.88254    
H           -58.46      -37.23      74.36       
H           -59.01      -36.56      75.81       
H           -57.64418   -35.90822   74.90226    
H           -58.29      -34.83      72.27       
H           -60.02      -34.77      71.84       
H           -59.15824   -36.29115   71.95413    
H           -57.4       -25.71      75.67       
H           -62.62      -39.74      73.99       
S           -55.83      -27.86      73.35       
C           -57.18      -26.53      75.08       
C           -56.14      -26.39      74.25       
C           -67.64      -42.31      74.47       
C           -66.19      -42.5       74.09       
C           -67.87      -41.04      74.86       
N           -65.59      -43.63      73.69       
N           -64.13      -41.67      73.54       
S           -64.08      -43.27      73.19       
H           -67.19      -39.09      75.42       
H           -68.9       -40.85      75.39       
C           -66.88      -40.0       74.94       
C           -65.24      -41.38      74.08       
C           -65.54      -40.16      74.61       
H           10.42       88.02       107.59      
H           -68.25      -43.12      74.81       
