612

C           5.17        28.41       57.02       
C           4.71        29.54       57.54       
S           4.42        27.0        57.73       
C           0.54        29.55       61.99       
C           0.98        28.24       61.52       
C           0.59        27.11       62.27       
C           -0.28       27.24       63.37       
C           -0.56       28.5        63.85       
C           -0.15       29.62       63.19       
C           -0.65       26.18       64.38       
C           -1.38       27.01       65.41       
C           -1.19       28.36       65.16       
C           1.45        30.66       61.36       
C           2.06        29.89       60.14       
C           1.85        28.51       60.43       
C           -1.98       26.46       66.57       
C           -2.35       27.44       67.55       
C           -2.19       28.83       67.31       
C           -1.52       29.29       66.17       
C           3.03        30.33       59.2        
C           3.72        29.35       58.53       
C           3.48        27.98       58.84       
C           2.64        27.51       59.79       
C           -1.56       25.08       63.7        
C           0.46        25.56       65.15       
C           0.6         31.87       60.81       
C           2.57        30.97       62.39       
H           -0.3        30.53       63.66       
H           0.81        26.13       61.84       
H           3.18        31.44       59.12       
H           2.55        26.42       59.89       
H           -2.18       25.4        66.8        
H           -1.35       30.37       66.05       
H           -1.0        24.49       62.97       
H           -1.85       24.36       64.47       
H           -2.39708    25.53723    63.17243    
H           0.93        26.25       65.88       
H           0.07        24.71       65.77       
H           1.2577      25.06513    64.59604    
H           3.52        30.41       62.13       
H           2.25        30.46       63.32       
H           2.82285     32.02352    62.5094     
H           0.43        32.64       61.53       
H           1.22        32.33       59.97       
H           -0.33457    31.43061    60.46128    
H           -3.25       26.18       69.11       
H           4.96        30.59       57.24       
S           -2.76       29.73       68.69       
C           -3.1        27.21       68.76       
C           -3.3        28.31       69.5        
C           7.8         27.97       53.58       
C           7.93        29.09       54.5        
C           6.86        27.07       53.94       
N           8.79        30.08       54.31       
N           7.51        30.24       56.5        
S           8.59        31.06       55.59       
H           5.39        26.38       55.28       
H           6.71        26.15       53.39       
C           6.06        27.23       55.06       
C           7.22        29.19       55.7        
C           6.18        28.26       55.97       
C           13.72       20.85       40.19       
C           12.43       20.83       40.57       
S           14.58       21.96       41.13       
C           10.23       24.5        44.86       
C           11.61       24.52       44.66       
C           12.42       25.32       45.41       
C           11.79       26.13       46.42       
C           10.4        26.01       46.74       
C           9.61        25.21       45.91       
C           12.42       26.97       47.57       
C           11.29       27.21       48.56       
C           10.09       26.7        47.94       
C           9.53        23.62       43.9        
C           10.75       23.07       43.14       
C           11.94       23.63       43.6        
C           11.3        27.74       49.86       
C           10.12       27.64       50.64       
C           9.0         27.16       49.99       
C           8.9         26.69       48.67       
C           10.82       22.15       42.09       
C           12.05       21.87       41.51       
C           13.18       22.5        41.99       
C           13.15       23.46       42.97       
C           13.68       26.3        48.24       
C           12.77       28.31       46.92       
C           8.79        22.44       44.61       
C           8.53        24.35       42.88       
H           8.54        25.16       46.05       
H           13.45       25.28       45.31       
H           9.92        21.63       41.7        
H           14.08       23.84       43.39       
H           12.16       28.32       50.18       
H           7.96        26.26       48.29       
H           14.38       26.07       47.43       
H           14.04       27.01       48.96       
H           13.45605    25.38976    48.79625    
H           11.82       28.79       46.67       
H           13.18       28.97       47.63       
H           13.37859    28.2553     46.01738    
H           8.1         23.64       42.19       
H           9.18        25.14       42.37       
H           7.6989      24.90407    43.31633    
H           7.97        22.86       45.24       
H           8.36        21.78       43.87       
H           9.53754     21.89698    45.18828    
H           10.57       28.63       52.48       
H           11.71       20.12       40.29       
S           7.72        26.95       51.17       
C           9.82        28.19       51.92       
C           8.58        27.86       52.36       
C           15.88       18.56       37.22       
C           14.73       17.98       37.88       
C           16.42       19.65       37.87       
N           14.1        16.8        37.64       
N           12.81       18.2        39.1        
S           12.59       16.76       38.38       
H           16.21       21.28       39.19       
H           17.26       20.12       37.37       
C           15.72       20.37       38.84       
C           13.95       18.76       38.83       
C           14.5        20.03       39.28       
C           19.51       14.88       21.74       
C           19.29       16.12       22.19       
S           19.89       13.79       23.03       
C           19.12       17.62       28.02       
C           19.28       16.25       27.74       
C           19.17       15.27       28.72       
C           18.8        15.55       29.95       
C           18.57       16.89       30.24       
C           18.79       17.96       29.35       
C           18.32       14.61       31.08       
C           17.94       15.69       32.11       
C           18.06       17.02       31.61       
C           19.03       18.49       26.73       
C           19.09       17.34       25.69       
C           19.44       16.13       26.28       
C           17.45       15.51       33.44       
C           17.17       16.63       34.23       
C           17.26       17.93       33.69       
C           17.69       18.12       32.32       
C           19.1        17.43       24.31       
C           19.43       16.3        23.58       
C           19.76       15.07       24.18       
C           19.78       15.03       25.55       
C           17.18       13.78       30.5        
C           19.46       13.74       31.57       
C           17.71       19.2        26.53       
C           20.3        19.39       26.57       
H           18.61       19.0        29.69       
H           19.35       14.2        28.47       
H           18.83       18.37       23.79       
H           20.09       14.16       26.07       
H           17.59       14.51       33.96       
H           17.79       19.13       31.95       
H           17.66       13.16       29.74       
H           16.47       14.39       30.01       
H           16.63554    13.17897    31.2283     
H           19.66       12.89       30.88       
H           19.16       13.23       32.54       
H           20.4155     14.21775    31.78648    
H           20.37       19.79       25.57       
H           21.22       18.76       26.59       
H           20.42861    20.1188     27.37025    
H           17.66       19.97       27.29       
H           17.57       19.71       25.56       
H           16.88861    18.48575    26.58714    
H           16.24       15.83       36.0        
H           19.08       16.91       21.47       
S           16.97       19.19       34.89       
C           16.54       16.65       35.5        
C           16.5        17.92       36.04       
C           20.06       13.88       17.56       
C           19.25       15.0        17.89       
C           20.27       12.98       18.51       
N           18.74       15.85       17.0        
N           18.02       16.18       19.43       
S           17.6        16.69       17.88       
H           20.67       12.59       20.65       
H           20.81       12.08       18.18       
C           20.17       13.25       19.91       
C           18.87       15.17       19.25       
C           19.46       14.37       20.34       
C           32.88       10.59       8.03        
C           31.96       9.68        8.51        
S           32.35       12.2        8.36        
C           26.57       10.88       10.99       
C           27.23       12.09       10.47       
C           26.7        13.32       10.77       
C           25.52       13.51       11.4        
C           24.86       12.35       11.86       
C           25.34       11.07       11.58       
C           24.83       14.83       11.84       
C           23.67       14.23       12.59       
C           23.72       12.74       12.66       
C           27.44       9.67        10.88       
C           28.63       10.24       10.13       
C           28.53       11.63       9.95        
C           22.71       14.91       13.33       
C           21.87       14.18       14.19       
C           22.0        12.75       14.29       
C           22.8        12.03       13.41       
C           29.74       9.58        9.71        
C           30.8        10.28       9.07        
C           30.77       11.63       9.04        
C           29.64       12.33       9.41        
C           25.79       15.68       12.65       
C           24.24       15.67       10.69       
C           27.75       9.1         12.34       
C           26.98       8.48        9.98        
H           24.82       10.21       11.97       
H           27.18       14.16       10.43       
H           29.84       8.47        9.79        
H           29.67       13.41       9.47        
H           22.7        15.96       13.38       
H           22.8        10.98       13.36       
H           26.65       16.05       12.05       
H           25.25       16.54       12.95       
H           26.19258    15.12645    13.4983     
H           23.3        15.2        10.4        
H           23.96       16.66       11.17       
H           24.853      15.73966    9.7914      
H           27.69       7.6         9.88        
H           26.94       8.78        8.94        
H           26.00686    8.0149      10.13742    
H           26.82       8.91        12.87       
H           28.32       8.23        12.31       
H           28.23886    9.79625     13.02144    
H           20.8        15.67       15.46       
H           32.12       8.61        8.44        
S           21.01       12.08       15.62       
C           20.93       14.62       15.22       
C           20.62       13.74       16.18       
C           36.89       10.24       5.92        
C           35.95       9.09        5.99        
C           36.32       11.35       6.44        
N           36.19       7.87        5.43        
N           33.94       8.01        6.55        
S           34.76       7.03        5.54        
H           34.71       12.36       7.27        
H           36.86       12.3        6.36        
C           35.02       11.4        7.02        
C           34.61       9.19        6.67        
C           34.14       10.43       7.26        
C           43.18       12.13       -8.05       
C           42.89       13.1        -7.15       
S           43.72       10.65       -7.22       
C           43.02       12.5        -1.19       
C           43.36       11.4        -1.89       
C           43.48       10.12       -1.19       
C           43.01       10.06       0.15        
C           42.51       11.25       0.7         
C           42.6        12.45       0.14        
C           42.59       8.82        0.96        
C           41.74       9.54        2.01        
C           41.69       10.93       1.84        
C           43.11       13.7        -2.06       
C           43.06       13.04       -3.37       
C           43.5        11.74       -3.25       
C           41.09       8.96        3.05        
C           40.08       9.66        3.73        
C           40.06       11.1        3.56        
C           40.81       11.71       2.53        
C           42.96       13.64       -4.63       
C           43.06       12.78       -5.73       
C           43.45       11.42       -5.66       
C           43.8        10.94       -4.4        
C           41.7        7.91        0.03        
C           43.7        8.07        1.7         
C           41.89       14.6        -1.87       
C           44.46       14.32       -1.62       
H           42.31       13.35       0.68        
H           43.67       9.2         -1.76       
H           42.74       14.68       -4.68       
H           44.17       9.95        -4.3        
H           41.18       7.86        3.2         
H           40.73       12.75       2.33        
H           42.23       7.79        -0.87       
H           41.7        6.97        0.5         
H           40.73893    8.40888     -0.09472    
H           43.96       8.6         2.61        
H           43.18       7.2         2.14        
H           44.55656    7.84019     1.06629     
H           44.16       14.88       -0.72       
H           45.17       13.53       -1.41       
H           44.87607    15.01814    -2.34635    
H           41.54       14.82       -0.85       
H           42.11       15.54       -2.42       
H           41.05846    14.14195    -2.40557    
H           38.85       8.2         4.91        
H           42.5        14.04       -7.54       
S           38.77       11.83       4.55        
C           39.02       9.22        4.69        
C           38.23       10.21       5.15        
C           43.31       12.07       -12.43      
C           43.41       13.31       -11.76      
C           43.15       11.02       -11.65      
N           43.55       14.57       -12.27      
N           43.32       14.7        -9.82       
S           43.46       15.73       -11.1       
H           43.0        10.08       -9.71       
H           43.09       10.09       -12.22      
C           43.19       11.03       -10.2       
C           43.39       13.4        -10.29      
C           43.3        12.2        -9.49       
C           46.93       12.27       -28.53      
C           47.38       11.26       -27.69      
S           45.86       13.36       -27.69      
C           45.43       10.66       -21.98      
C           45.0        11.83       -22.65      
C           44.22       12.81       -22.08      
C           43.92       12.59       -20.69      
C           44.38       11.43       -20.03      
C           45.18       10.49       -20.62      
C           42.76       13.27       -19.89      
C           43.02       12.65       -18.51      
C           43.91       11.56       -18.63      
C           46.25       9.68        -22.87      
C           46.3        10.6        -24.11      
C           45.44       11.73       -24.01      
C           42.46       13.08       -17.31      
C           42.85       12.43       -16.13      
C           43.71       11.31       -16.25      
C           44.2        10.78       -17.52      
C           47.05       10.44       -25.24      
C           46.89       11.31       -26.34      
C           46.01       12.47       -26.23      
C           45.32       12.67       -25.05      
C           42.81       14.83       -19.79      
C           41.38       12.71       -20.3       
C           47.7        9.45        -22.38      
C           45.51       8.51        -23.44      
H           45.68       9.66        -20.16      
H           43.9        13.7        -22.64      
H           47.62       9.52        -25.43      
H           44.67       13.51       -24.92      
H           41.84       13.97       -17.22      
H           44.97       10.01       -17.54      
H           42.64       15.16       -20.82      
H           41.98       15.35       -19.25      
H           43.72132    15.25285    -19.36715   
H           41.37       11.67       -20.24      
H           40.57       13.04       -19.65      
H           41.07978    12.95897    -21.31783   
H           46.13       7.88        -24.18      
H           44.62       8.86        -23.99      
H           45.11824    7.89742     -22.62798   
H           47.73       8.73        -21.54      
H           48.33       8.98        -23.14      
H           48.25413    10.34681    -22.10294   
H           41.91       13.58       -14.45      
H           47.97       10.46       -28.09      
S           44.05       10.65       -14.69      
C           42.61       12.79       -14.78      
C           43.25       11.98       -13.9       
C           48.43       12.75       -32.62      
C           47.17       13.28       -32.32      
C           49.13       12.31       -31.55      
N           46.31       13.98       -33.17      
N           45.45       13.86       -30.94      
S           44.97       14.55       -32.31      
H           49.18       11.56       -29.57      
H           50.15       11.87       -31.71      
C           48.55       12.03       -30.32      
C           46.65       13.21       -30.99      
C           47.31       12.49       -29.95      
C           61.25       13.39       -43.03      
C           61.13       12.51       -41.98      
S           59.76       14.33       -43.25      
C           56.04       12.21       -38.56      
C           55.94       13.21       -39.58      
C           54.81       14.06       -39.66      
C           53.76       13.9        -38.77      
C           53.76       12.77       -37.92      
C           54.89       11.88       -37.81      
C           52.5        14.79       -38.43      
C           51.65       13.82       -37.66      
C           52.58       12.87       -37.14      
C           57.32       11.4        -38.71      
C           58.05       12.13       -39.77      
C           57.19       13.11       -40.39      
C           50.39       14.05       -37.16      
C           50.05       13.26       -35.98      
C           50.95       12.36       -35.49      
C           52.17       12.09       -36.1       
C           59.29       11.8        -40.27      
C           59.85       12.61       -41.33      
C           58.92       13.56       -41.94      
C           57.64       13.85       -41.47      
C           52.98       16.11       -37.61      
C           51.72       15.11       -39.71      
C           58.22       11.46       -37.46      
C           57.12       10.02       -39.31      
H           54.86       11.08       -37.13      
H           54.83       14.91       -40.33      
H           59.99       11.15       -39.77      
H           56.99       14.62       -41.89      
H           49.65       14.7        -37.7       
H           52.89       11.31       -35.71      
H           53.73       16.61       -38.16      
H           53.38       15.77       -36.69      
H           52.19183    16.83368    -37.40221   
H           52.32       15.72       -40.41      
H           50.82       15.63       -39.37      
H           51.53989    14.21664    -40.30797   
H           58.08       9.49        -39.43      
H           56.59       10.09       -40.3       
H           56.45241    9.33835     -38.78295   
H           59.07       10.95       -37.66      
H           57.73       10.82       -36.72      
H           58.39266    12.47435    -37.1003    
H           48.33       14.29       -35.05      
H           61.9        11.84       -41.67      
S           50.27       11.49       -34.13      
C           49.01       13.47       -35.0       
C           49.1        12.7        -33.85      
C           64.63       15.26       -45.17      
C           64.85       14.42       -44.0       
C           63.33       15.26       -45.58      
N           66.04       14.21       -43.48      
N           64.16       13.15       -42.21      
S           65.8        13.15       -42.18      
H           61.29       14.65       -45.41      
H           63.04       15.72       -46.52      
C           62.28       14.63       -44.9       
C           63.81       13.78       -43.32      
C           62.45       13.82       -43.79      
C           68.44       30.61       -47.36      
C           67.56       29.96       -48.17      
S           69.49       29.5        -46.51      
C           67.11       23.9        -48.6       
C           68.26       24.39       -47.94      
C           69.01       23.49       -47.22      
C           68.66       22.16       -47.13      
C           67.53       21.67       -47.81      
C           66.81       22.57       -48.57      
C           69.21       21.02       -46.19      
C           68.34       19.8        -46.6       
C           67.3        20.26       -47.49      
C           66.34       25.09       -49.16      
C           67.19       26.24       -48.68      
C           68.28       25.86       -47.83      
C           68.3        18.57       -45.95      
C           67.17       17.77       -46.28      
C           66.15       18.23       -47.11      
C           66.21       19.45       -47.74      
C           66.94       27.6        -48.83      
C           67.68       28.58       -48.16      
C           68.72       28.14       -47.34      
C           69.04       26.79       -47.12      
C           70.72       20.7        -46.37      
C           68.87       21.3        -44.71      
C           66.31       24.95       -50.69      
C           64.89       25.14       -48.62      
H           65.91       22.13       -49.04      
H           69.75       23.9        -46.55      
H           66.16       27.93       -49.53      
H           69.73       26.41       -46.35      
H           68.96       18.21       -45.19      
H           65.3        19.7        -48.37      
H           71.23       21.63       -46.17      
H           71.16       19.99       -45.74      
H           70.94705    20.36287    -47.38138   
H           67.84       21.12       -44.49      
H           69.29       20.54       -44.03      
H           69.152      22.287      -44.3434    
H           64.26       24.43       -49.19      
H           64.55       26.06       -49.03      
H           64.78568    25.13305    -47.53503   
H           65.65       24.22       -51.03      
H           66.1        25.92       -51.14      
H           67.27126    24.65531    -51.11099   
H           67.31       16.18       -44.81      
H           66.77       30.45       -48.69      
S           64.89       17.07       -47.22      
C           66.81       16.57       -45.57      
C           65.56       16.21       -45.88      
C           69.34       34.82       -46.4       
C           68.15       34.5        -47.08      
C           70.16       33.72       -46.06      
N           67.32       35.34       -47.64      
N           66.77       33.0        -48.23      
S           66.13       34.5        -48.33      
H           70.55       31.69       -45.99      
H           71.11       33.93       -45.52      
C           69.8        32.4        -46.33      
C           67.84       33.12       -47.41      
C           68.68       31.99       -47.01      
C           73.26       50.91       -44.23      
C           72.03       50.37       -43.94      
S           74.42       49.63       -44.5       
C           70.74       44.47       -44.38      
C           72.09       44.78       -44.53      
C           72.97       43.74       -44.83      
C           72.54       42.45       -45.07      
C           71.2        42.16       -44.95      
C           70.27       43.18       -44.65      
C           73.12       41.46       -46.0       
C           72.21       40.26       -45.71      
C           70.96       40.75       -45.25      
C           69.91       45.79       -44.32      
C           71.09       46.77       -44.16      
C           72.32       46.22       -44.32      
C           72.3        38.95       -46.04      
C           71.18       38.1        -45.97      
C           69.97       38.68       -45.57      
C           69.81       39.93       -45.17      
C           70.82       48.11       -43.97      
C           71.98       48.94       -43.97      
C           73.27       48.39       -44.22      
C           73.49       47.01       -44.27      
C           73.14       42.05       -47.47      
C           74.56       41.19       -45.42      
C           69.21       45.93       -45.68      
C           68.84       45.8        -43.17      
H           69.15       42.99       -44.52      
H           74.03       43.94       -44.73      
H           69.78       48.42       -43.92      
H           74.44       46.59       -44.39      
H           73.23       38.44       -46.27      
H           68.87       40.23       -44.69      
H           74.17       41.9        -47.92      
H           72.82       43.05       -47.57      
H           72.41235    41.58171    -48.13281   
H           75.15       42.1        -45.48      
H           75.08       40.51       -46.02      
H           74.53269    40.90329    -44.36874   
H           67.85       45.8        -43.57      
H           69.13       46.76       -42.68      
H           69.01071    45.02467    -42.42312   
H           68.6        46.84       -45.82      
H           68.36       45.25       -45.6       
H           69.80023    45.6692     -46.55848   
H           72.0        36.18       -46.63      
H           71.17       51.0        -43.66      
S           68.8        37.44       -45.46      
C           71.1        36.69       -46.25      
C           69.84       36.17       -46.14      
C           74.51       54.87       -43.03      
C           75.16       54.3        -44.13      
C           73.46       54.18       -42.51      
N           76.15       54.83       -44.83      
N           75.65       52.44       -45.43      
S           76.55       53.69       -45.97      
H           72.18       52.58       -42.37      
H           72.85       54.58       -41.69      
C           73.05       52.92       -42.96      
C           74.76       52.92       -44.54      
C           73.67       52.24       -43.92      
C           79.84       68.67       -35.46      
C           79.49       67.54       -34.75      
S           79.49       68.53       -37.2       
C           77.03       62.6        -37.37      
C           77.43       63.62       -38.27      
C           77.3        63.55       -39.66      
C           76.86       62.32       -40.19      
C           76.48       61.31       -39.26      
C           76.57       61.47       -37.88      
C           76.67       61.95       -41.69      
C           76.05       60.54       -41.51      
C           76.06       60.15       -40.1       
C           77.63       62.86       -35.99      
C           78.01       64.34       -36.18      
C           77.99       64.79       -37.51      
C           75.72       59.68       -42.46      
C           75.51       58.37       -42.07      
C           75.45       57.96       -40.72      
C           75.75       58.83       -39.68      
C           78.47       65.22       -35.22      
C           78.92       66.52       -35.57      
C           79.01       66.86       -36.95      
C           78.51       66.05       -37.9       
C           75.72       62.86       -42.45      
C           78.09       61.64       -42.36      
C           76.55       62.6        -34.83      
C           78.95       61.95       -35.76      
H           76.23       60.67       -37.21      
H           77.48       64.45       -40.24      
H           78.63       64.86       -34.22      
H           78.64       66.26       -38.95      
H           75.64       59.91       -43.54      
H           75.65       58.55       -38.63      
H           76.13       63.85       -42.38      
H           75.76       62.56       -43.48      
H           74.71101    62.84579    -42.03788   
H           78.64       60.97       -41.7       
H           78.02       61.07       -43.26      
H           78.68496    62.5532     -42.37384   
H           78.7        60.89       -35.58      
H           79.64       61.88       -36.63      
H           79.53115    62.28103    -34.89931   
H           77.04       62.45       -33.88      
H           76.09       61.68       -35.09      
H           75.76487    63.35551    -34.85963   
H           75.27       57.41       -44.0       
H           79.53       67.5        -33.68      
S           74.88       56.28       -40.59      
C           75.11       57.3        -42.97      
C           74.84       56.11       -42.35      
C           81.92       72.52       -34.16      
C           81.44       71.5        -33.23      
C           81.56       72.05       -35.44      
N           81.67       71.48       -31.92      
N           80.54       69.4        -32.7       
S           81.18       70.04       -31.34      
H           80.86       70.76       -36.94      
H           81.84       72.71       -36.3       
C           80.97       70.84       -35.87      
C           80.77       70.27       -33.67      
C           80.5        69.92       -35.05      
H           -3.65       28.35       70.5        
H           82.72       73.28       -33.9       
