612

C           4.11        82.07       24.98       
C           3.61        82.36       26.19       
S           3.44        80.58       24.39       
C           -0.97       79.22       28.73       
C           -0.36       78.64       27.6        
C           -0.9        77.39       27.12       
C           -1.84       76.71       27.8        
C           -2.48       77.33       28.89       
C           -2.06       78.6        29.36       
C           -2.46       75.39       27.41       
C           -3.66       75.41       28.36       
C           -3.58       76.44       29.33       
C           -0.26       80.57       29.07       
C           0.89        80.54       28.05       
C           0.68        79.51       27.14       
C           -4.68       74.45       28.44       
C           -5.57       74.6        29.51       
C           -5.44       75.6        30.5        
C           -4.45       76.58       30.4        
C           1.85        81.48       27.9        
C           2.57        81.47       26.7        
C           2.35        80.43       25.75       
C           1.42        79.38       25.93       
C           -2.96       75.27       26.0        
C           -1.59       74.15       27.82       
C           -1.18       81.76       28.89       
C           0.21        80.37       30.48       
H           -2.57       79.04       30.29       
H           -0.59       77.02       26.14       
H           2.11        82.28       28.61       
H           1.39        78.53       25.26       
H           -4.73       73.6        27.71       
H           -4.3        77.38       31.12       
H           -2.21       75.1        25.21       
H           -3.53       74.35       25.84       
H           -3.68414    76.02929    25.70472    
H           -1.54       74.16       28.91       
H           -2.03       73.17       27.59       
H           -0.53158    74.25514    27.58168    
H           0.83        79.47       30.5        
H           -0.67       80.13       31.1        
H           0.82534     81.19045    30.8492     
H           -2.01       81.74       29.56       
H           -0.86       82.79       29.11       
H           -1.6867     81.80223    27.92586    
H           -6.97       72.84       29.13       
H           4.15        83.15       26.81       
S           -6.84       75.56       31.56       
C           -6.68       73.74       29.75       
C           -7.39       74.08       30.84       
C           7.79        83.14       22.86       
C           7.49        83.71       24.12       
C           6.72        82.39       22.32       
N           8.31        84.45       24.86       
N           6.28        83.86       26.19       
S           7.65        84.7        26.37       
H           4.82        81.56       22.47       
H           6.86        81.95       21.33       
C           5.47        82.19       23.02       
C           6.25        83.39       24.89       
C           5.29        82.58       24.31       
C           22.83       79.84       17.81       
C           21.8        79.08       17.32       
S           22.2        81.53       18.08       
C           15.99       80.82       18.06       
C           16.91       81.84       18.19       
C           16.54       83.09       18.72       
C           15.26       83.32       19.16       
C           14.33       82.25       19.04       
C           14.65       80.99       18.46       
C           14.77       84.51       20.0        
C           13.44       83.9        20.5        
C           13.19       82.66       19.75       
C           16.64       79.56       17.59       
C           18.09       79.98       17.48       
C           18.24       81.34       17.93       
C           12.48       84.44       21.32       
C           11.27       83.78       21.47       
C           11.04       82.58       20.79       
C           11.98       81.97       19.94       
C           19.16       79.17       17.25       
C           20.47       79.64       17.46       
C           20.51       81.04       17.92       
C           19.5        81.92       18.1        
C           15.75       84.76       21.13       
C           14.55       85.72       19.01       
C           16.48       78.49       18.72       
C           16.1        79.02       16.29       
H           13.93       80.19       18.51       
H           17.22       83.97       18.66       
H           18.97       78.16       16.86       
H           19.59       82.95       18.5        
H           12.75       85.32       21.89       
H           11.81       81.02       19.41       
H           15.4        85.58       21.74       
H           16.53       85.19       20.63       
H           15.98952    83.85827    21.69358    
H           15.46       86.01       18.59       
H           14.22       86.67       19.47       
H           13.84535    85.5166     18.20365    
H           15.17       78.42       16.5        
H           16.9        78.46       15.85       
H           15.81157    79.79156    15.57613    
H           15.46       78.22       18.85       
H           16.89       77.52       18.46       
H           16.87777    78.75281    19.70021    
H           10.02       84.98       22.87       
H           21.88       78.06       16.98       
S           9.43        81.94       21.11       
C           10.13       84.08       22.26       
C           9.04        83.22       22.17       
C           27.21       79.47       18.29       
C           26.48       78.46       17.57       
C           26.42       80.44       18.83       
N           27.03       77.46       16.9        
N           24.5        77.47       16.88       
S           25.75       76.6        16.27       
H           24.55       81.22       19.26       
H           26.86       81.27       19.34       
C           25.01       80.52       18.65       
C           25.03       78.55       17.47       
C           24.26       79.67       17.89       
C           41.14       83.72       12.31       
C           40.71       84.51       13.37       
S           40.59       82.04       12.53       
C           36.42       82.49       17.06       
C           37.04       81.46       16.35       
C           36.52       80.22       16.14       
C           35.28       79.97       16.69       
C           34.63       80.96       17.48       
C           35.26       82.21       17.73       
C           34.29       78.87       16.33       
C           33.16       79.31       17.27       
C           33.32       80.62       17.83       
C           37.11       83.87       16.97       
C           38.33       83.44       16.1        
C           38.22       82.06       15.71       
C           32.07       78.56       17.62       
C           30.89       79.2        18.03       
C           31.02       80.52       18.52       
C           32.27       81.24       18.49       
C           39.21       84.25       15.46       
C           39.95       83.79       14.34       
C           39.92       82.44       14.09       
C           39.06       81.55       14.71       
C           33.85       79.05       14.87       
C           34.75       77.37       16.68       
C           36.26       84.92       16.19       
C           37.51       84.28       18.46       
H           34.82       82.95       18.4        
H           37.0        79.46       15.47       
H           39.2        85.32       15.68       
H           38.96       80.49       14.35       
H           31.97       77.46       17.46       
H           32.32       82.28       18.88       
H           34.65       78.53       14.23       
H           34.13       80.06       14.62       
H           32.81892    78.82164    14.60012    
H           34.7        77.07       17.75       
H           34.06       76.59       16.36       
H           35.79158    77.21517    16.39849    
H           38.13       83.45       18.76       
H           36.74       84.16       19.17       
H           38.12324    85.17461    18.56822    
H           35.48       85.34       16.88       
H           36.88       85.79       15.82       
H           35.78197    84.52888    15.29188    
H           29.34       77.68       17.84       
H           40.95       85.61       13.41       
S           29.41       81.08       19.05       
C           29.62       78.66       18.19       
C           28.68       79.56       18.47       
C           43.39       84.43       8.55        
C           42.69       85.49       9.18        
C           43.23       83.2        9.14        
N           42.66       86.75       8.76        
N           41.51       86.45       10.99       
S           41.87       87.58       9.89        
H           42.43       81.97       10.73       
H           43.74       82.38       8.71        
C           42.45       82.96       10.29       
C           41.97       85.28       10.46       
C           41.86       83.96       11.03       
C           55.65       87.42       -2.21       
C           54.74       88.34       -1.81       
S           55.31       85.83       -1.47       
C           49.94       87.14       1.74        
C           50.87       86.05       1.57        
C           50.53       84.78       2.07        
C           49.33       84.62       2.73        
C           48.42       85.69       2.93        
C           48.72       86.94       2.45        
C           48.96       83.37       3.48        
C           47.63       83.8        4.17        
C           47.31       85.13       3.82        
C           50.57       88.48       1.17        
C           51.88       87.99       0.53        
C           52.07       86.62       0.86        
C           46.85       83.15       5.16        
C           45.81       83.87       5.71        
C           45.49       85.23       5.33        
C           46.25       85.8        4.33        
C           52.82       88.62       -0.25       
C           53.87       87.9        -0.78       
C           54.05       86.57       -0.45       
C           53.18       85.88       0.44        
C           48.58       82.21       2.51        
C           50.13       83.0        4.46        
C           49.62       89.09       0.09        
C           50.81       89.45       2.39        
H           47.99       87.73       2.63        
H           51.21       83.95       1.9         
H           52.54       89.56       -0.69       
H           53.33       84.84       0.63        
H           47.14       82.16       5.51        
H           46.09       86.8        3.98        
H           49.31       82.15       1.72        
H           47.69       82.51       2.07        
H           48.57297    81.20491    2.93172     
H           50.86       82.64       3.82        
H           49.88       82.22       5.1         
H           50.51942    83.84374    5.0297      
H           49.79       89.69       2.75        
H           51.31       90.33       2.09        
H           51.28525    89.01131    3.26738     
H           48.7        89.44       0.59        
H           49.97       89.98       -0.37       
H           49.4338     88.35237    -0.6906     
H           45.33       82.58       7.5         
H           54.66       89.3        -2.33       
S           44.15       85.85       6.33        
C           45.04       83.47       6.91        
C           44.17       84.46       7.33        
C           58.23       87.75       -5.78       
C           58.07       88.89       -4.92       
C           57.65       86.65       -5.33       
N           58.58       90.13       -5.08       
N           56.96       89.96       -3.13       
S           57.86       91.11       -3.97       
H           56.39       85.49       -4.0        
H           57.58       85.83       -6.0        
C           56.82       86.52       -4.19       
C           57.23       88.75       -3.69       
C           56.65       87.54       -3.28       
C           62.0        86.21       -21.71      
C           60.72       86.01       -21.17      
S           62.92       87.25       -20.62      
C           58.93       87.78       -15.61      
C           60.24       88.19       -16.03      
C           61.14       88.55       -15.0       
C           60.75       88.62       -13.66      
C           59.43       88.3        -13.27      
C           58.53       87.94       -14.31      
C           61.73       88.75       -12.49      
C           60.67       88.62       -11.33      
C           59.33       88.36       -11.83      
C           58.2        87.04       -16.76      
C           59.3        87.05       -17.82      
C           60.44       87.79       -17.42      
C           60.95       88.73       -9.96       
C           59.87       88.38       -9.13       
C           58.63       87.98       -9.67       
C           58.3        87.97       -11.01      
C           59.33       86.46       -19.08      
C           60.51       86.62       -19.9       
C           61.62       87.29       -19.38      
C           61.57       87.93       -18.18      
C           62.72       87.6        -12.56      
C           62.38       90.14       -12.44      
C           57.93       85.5        -16.42      
C           56.95       87.8        -17.29      
H           57.51       87.67       -14.02      
H           62.25       88.58       -15.27      
H           58.41       85.79       -19.4       
H           62.4        88.49       -17.78      
H           61.9        88.99       -9.55       
H           57.25       87.81       -11.34      
H           63.31       87.66       -13.48      
H           62.18       86.67       -12.5       
H           63.40526    87.54168    -11.71436   
H           63.13       90.26       -13.25      
H           63.01       90.19       -11.57      
H           61.63957    90.93908    -12.47665   
H           56.41       87.27       -18.12      
H           57.1        88.78       -17.76      
H           56.19229    87.88498    -16.51105   
H           57.32       85.57       -15.57      
H           57.35       85.15       -17.23      
H           58.80115    84.87775    -16.21502   
H           60.61       88.68       -7.05       
H           60.01       85.5        -21.73      
S           57.5        87.7        -8.43       
C           59.84       88.42       -7.68       
C           58.7        87.85       -7.15       
C           64.24       84.64       -25.05      
C           62.88       84.2        -24.83      
C           64.67       85.69       -24.22      
N           62.26       83.28       -25.52      
N           60.87       84.1        -23.64      
S           60.77       83.11       -24.91      
H           64.49       86.89       -22.49      
H           65.7        86.06       -24.33      
C           63.95       86.17       -23.13      
C           62.11       84.71       -23.72      
C           62.63       85.75       -22.89      
C           79.49       81.3        -27.25      
C           78.6        80.33       -26.81      
S           78.66       82.5        -28.19      
C           72.65       80.62       -27.69      
C           73.39       81.61       -28.38      
C           72.75       82.67       -29.08      
C           71.42       82.95       -28.82      
C           70.69       81.97       -28.14      
C           71.27       80.77       -27.64      
C           70.57       84.1        -29.26      
C           69.29       83.77       -28.46      
C           69.34       82.48       -27.9       
C           73.56       79.76       -26.86      
C           74.93       80.27       -27.29      
C           74.84       81.46       -28.05      
C           68.29       84.59       -28.12      
C           67.23       84.11       -27.28      
C           67.25       82.77       -26.79      
C           68.35       81.96       -27.08      
C           76.11       79.77       -26.87      
C           77.22       80.54       -27.2       
C           77.13       81.77       -27.98      
C           75.93       82.23       -28.45      
C           71.14       85.45       -28.81      
C           70.27       84.08       -30.77      
C           73.31       79.98       -25.35      
C           73.54       78.21       -27.21      
H           70.73       80.1        -26.99      
H           73.36       83.49       -29.43      
H           76.12       78.86       -26.31      
H           75.91       83.06       -29.17      
H           68.39       85.63       -28.42      
H           68.45       80.92       -26.73      
H           70.63       86.3        -29.32      
H           72.14       85.65       -29.12      
H           71.18351    85.58777    -27.72962   
H           71.13       84.1        -31.32      
H           69.68       84.99       -31.05      
H           69.7334     83.19282    -31.10627   
H           74.33       77.62       -26.73      
H           73.91       78.06       -28.22      
H           72.54302    77.77382    -27.14769   
H           72.24       79.96       -25.15      
H           73.58       79.2        -24.67      
H           73.55761    80.95705    -24.93509   
H           65.79       85.8        -27.04      
H           78.93       79.42       -26.31      
S           65.88       82.47       -25.76      
C           66.05       84.79       -26.78      
C           65.19       84.08       -26.04      
C           83.9        80.88       -27.55      
C           83.29       82.16       -27.27      
C           82.96       79.88       -27.59      
N           83.96       83.24       -27.13      
N           81.54       83.6        -26.95      
S           82.91       84.49       -26.89      
H           80.95       79.22       -27.73      
H           83.27       78.81       -27.83      
C           81.55       80.02       -27.45      
C           81.86       82.34       -27.18      
C           80.94       81.23       -27.27      
C           99.2        75.48       -30.72      
C           98.1        74.73       -30.61      
S           99.01       77.03       -29.99      
C           92.77       76.89       -28.78      
C           93.8        77.81       -28.79      
C           93.49       79.2        -28.65      
C           92.17       79.56       -28.39      
C           91.17       78.55       -28.15      
C           91.48       77.22       -28.31      
C           91.5        80.93       -28.3       
C           90.09       80.56       -27.85      
C           89.88       79.13       -27.78      
C           93.28       75.51       -29.11      
C           94.78       75.77       -29.32      
C           95.05       77.12       -29.12      
C           88.96       81.36       -27.75      
C           87.66       80.78       -27.58      
C           87.57       79.39       -27.68      
C           88.66       78.54       -27.62      
C           95.7        74.89       -29.82      
C           97.04       75.38       -30.01      
C           97.3        76.7        -29.73      
C           96.33       77.62       -29.38      
C           92.32       81.81       -27.3       
C           91.4        81.68       -29.65      
C           93.18       74.41       -27.95      
C           92.53       74.95       -30.37      
H           90.78       76.38       -28.28      
H           94.22       79.98       -28.72      
H           95.4        73.94       -30.14      
H           96.6        78.72       -29.26      
H           89.07       82.47       -27.74      
H           88.48       77.5        -27.41      
H           93.36       81.89       -27.65      
H           92.41       81.3        -26.39      
H           91.93743    82.7989     -27.04736   
H           92.23       82.34       -29.8       
H           90.54       82.3        -29.44      
H           91.42919    80.994      -30.49655   
H           91.9        74.14       -29.9       
H           93.17       74.37       -31.03      
H           91.95117    75.70111    -30.90749   
H           92.14       74.48       -27.5       
H           93.27       73.33       -28.33      
H           93.97253    74.60992    -27.22887   
H           86.35       82.59       -27.5       
H           97.95       73.72       -31.03      
S           85.87       78.97       -27.66      
C           86.4        81.49       -27.65      
C           85.33       80.66       -27.65      
C           103.2       74.39       -32.43      
C           101.98      73.9        -33.06      
C           103.01      75.32       -31.37      
N           101.87      73.01       -34.08      
N           99.63       73.59       -33.14      
S           100.35      72.57       -34.23      
H           101.73      76.54       -30.07      
H           103.85      75.7        -30.82      
C           101.72      75.72       -30.91      
C           100.66      74.25       -32.46      
C           100.48      75.18       -31.36      
C           117.36      69.18       -38.92      
C           116.15      68.46       -38.85      
S           117.39      70.41       -37.63      
C           111.59      69.73       -35.2       
C           112.71      70.6        -35.07      
C           112.54      71.88       -34.49      
C           111.28      72.29       -34.01      
C           110.17      71.38       -34.08      
C           110.36      70.11       -34.62      
C           110.86      73.68       -33.49      
C           109.33      73.44       -33.29      
C           108.97      72.07       -33.59      
C           111.86      68.55       -36.09      
C           113.31      68.9        -36.51      
C           113.8       70.07       -35.86      
C           108.35      74.31       -33.05      
C           106.99      73.88       -33.06      
C           106.67      72.51       -33.43      
C           107.66      71.58       -33.62      
C           114.07      68.27       -37.41      
C           115.31      68.88       -37.8       
C           115.8       69.96       -37.03      
C           115.05      70.61       -36.13      
C           111.53      73.88       -32.14      
C           111.18      74.82       -34.57      
C           111.87      67.17       -35.38      
C           110.93      68.61       -37.36      
H           109.53      69.38       -34.6       
H           113.36      72.62       -34.59      
H           113.66      67.48       -38.02      
H           115.43      71.58       -35.78      
H           108.5       75.44       -33.01      
H           107.38      70.52       -33.92      
H           111.99      74.84       -32.27      
H           112.39      73.17       -32.12      
H           110.83061   73.81642    -31.30639   
H           112.24      75.01       -34.51      
H           110.74      75.72       -34.21      
H           110.91105   74.60622    -35.60444   
H           111.53      68.24       -38.21      
H           110.75      69.67       -37.61      
H           109.95492   68.13314    -37.26036   
H           110.88      66.89       -35.11      
H           112.4       66.5        -36.07      
H           112.39583   67.21908    -34.42649   
H           105.77      75.67       -32.34      
H           115.76      67.78       -39.58      
S           104.96      72.3        -33.16      
C           105.75      74.68       -32.78      
C           104.55      73.97       -32.84      
C           120.75      69.31       -41.83      
C           119.44      68.89       -42.24      
C           120.8       69.56       -40.48      
N           119.12      68.51       -43.47      
N           117.06      68.49       -41.88      
S           117.49      68.24       -43.45      
H           119.89      69.96       -38.56      
H           121.8       69.92       -40.09      
C           119.69      69.56       -39.54      
C           118.26      68.82       -41.31      
C           118.41      69.28       -39.88      
C           135.32      71.13       -49.58      
C           134.95      71.99       -48.54      
S           134.09      69.91       -49.74      
C           129.95      71.0        -45.17      
C           130.07      70.17       -46.35      
C           129.07      69.29       -46.8       
C           127.91      69.21       -46.08      
C           127.76      70.03       -44.93      
C           128.81      70.85       -44.39      
C           126.66      68.45       -46.48      
C           125.77      68.84       -45.25      
C           126.37      69.81       -44.41      
C           131.21      71.88       -44.93      
C           132.06      71.5        -46.17      
C           131.41      70.39       -46.86      
C           124.48      68.45       -45.04      
C           123.76      68.94       -44.01      
C           124.37      69.88       -43.13      
C           125.69      70.28       -43.33      
C           133.22      72.13       -46.59      
C           133.77      71.56       -47.78      
C           133.19      70.45       -48.37      
C           131.98      69.86       -48.0       
C           126.06      68.99       -47.8       
C           126.88      66.93       -46.47      
C           130.83      73.41       -44.96      
C           132.04      71.5        -43.69      
H           128.69      71.53       -43.55      
H           129.22      68.65       -47.71      
H           133.65      73.08       -46.16      
H           131.5       69.01       -48.53      
H           124.04      67.74       -45.69      
H           126.05      70.98       -42.7       
H           126.72      68.81       -48.65      
H           125.16      68.37       -47.94      
H           125.75985   70.03702    -47.75812   
H           127.19      66.65       -45.45      
H           126.0       66.39       -46.62      
H           127.65698   66.59095    -47.15516   
H           132.88      72.21       -43.66      
H           132.44      70.47       -43.88      
H           131.57837   71.54896    -42.70379   
H           130.31      73.72       -44.08      
H           131.79      73.94       -44.89      
H           130.25047   73.63895    -45.85433   
H           121.76      67.91       -44.16      
H           135.59      72.77       -48.26      
S           123.22      70.38       -41.94      
C           122.43      68.62       -43.67      
C           121.97      69.31       -42.56      
C           138.22      71.79       -52.77      
C           138.48      72.3        -51.41      
C           137.0       71.12       -52.87      
N           139.56      72.96       -51.03      
N           137.97      72.74       -49.29      
S           139.51      73.32       -49.45      
H           135.17      70.41       -52.04      
H           136.56      71.06       -53.83      
C           136.13      70.77       -51.79      
C           137.56      72.08       -50.35      
C           136.41      71.23       -50.53      
C           147.85      71.29       -66.53      
C           146.61      70.69       -66.49      
S           148.35      71.81       -64.91      
C           143.05      70.97       -61.51      
C           144.29      71.55       -61.38      
C           144.77      72.02       -60.16      
C           143.87      72.01       -59.06      
C           142.48      71.56       -59.27      
C           142.19      70.82       -60.42      
C           144.03      72.58       -57.7       
C           142.67      72.32       -57.07      
C           141.75      71.74       -58.01      
C           142.83      70.49       -62.98      
C           144.19      70.85       -63.63      
C           145.08      71.42       -62.66      
C           142.38      72.44       -55.72      
C           141.05      72.07       -55.22      
C           140.1       71.62       -56.19      
C           140.49      71.38       -57.55      
C           144.67      70.46       -64.86      
C           146.01      70.83       -65.2       
C           146.78      71.52       -64.26      
C           146.36      71.87       -62.99      
C           145.09      71.86       -56.88      
C           144.43      74.09       -57.82      
C           142.62      68.97       -63.0       
C           141.71      71.22       -63.76      
H           141.3       70.31       -60.58      
H           145.77      72.35       -60.0       
H           144.05      70.01       -65.68      
H           146.97      72.39       -62.31      
H           143.01      72.94       -55.07      
H           139.73      70.99       -58.21      
H           145.27      72.48       -55.9       
H           146.04      71.94       -57.41      
H           144.87465   70.81196    -56.67183   
H           145.46      74.17       -57.67      
H           144.13      74.72       -56.95      
H           143.98987   74.55853    -58.70026   
H           140.73      70.8        -63.59      
H           141.87      70.92       -64.79      
H           141.72414   72.30878    -63.80949   
H           141.69      68.76       -62.44      
H           142.54      68.45       -63.97      
H           143.41204   68.39011    -62.52619   
H           141.07      72.41       -53.07      
H           146.07      70.49       -67.41      
S           138.57      71.29       -55.45      
C           140.49      72.18       -53.97      
C           139.16      71.92       -53.89      
C           150.77      72.01       -69.81      
C           149.58      71.16       -69.94      
C           150.91      72.44       -68.51      
N           149.26      70.57       -71.1       
N           147.52      70.11       -69.25      
S           147.78      69.8        -70.85      
H           150.25      72.53       -66.5       
H           151.73      73.12       -68.27      
C           149.99      72.1        -67.42      
C           148.6       70.92       -68.9       
C           148.84      71.4        -67.59      
H           -8.21       73.53       31.28       
H           151.3       72.46       -70.73      
