612

C           18.74       98.79       18.8        
C           17.37       98.86       18.61       
S           19.01       98.07       20.37       
C           13.08       96.69       22.3        
C           14.38       96.31       22.63       
C           14.57       95.46       23.71       
C           13.42       95.23       24.54       
C           12.15       95.63       24.23       
C           11.97       96.42       23.05       
C           13.51       94.66       25.95       
C           12.0        94.48       26.18       
C           11.25       95.2        25.28       
C           13.09       97.64       21.11       
C           14.57       97.73       20.75       
C           15.3        96.95       21.69       
C           11.38       93.98       27.32       
C           9.96        94.19       27.44       
C           9.24        95.04       26.57       
C           9.92        95.53       25.44       
C           15.17       98.37       19.73       
C           16.55       98.33       19.6        
C           17.26       97.67       20.64       
C           16.69       96.99       21.64       
C           14.15       93.22       26.0        
C           14.2        95.53       26.95       
C           12.3        96.92       19.95       
C           12.44       99.01       21.39       
H           10.9        96.75       22.74       
H           15.61       95.08       23.93       
H           14.7        98.9        18.97       
H           17.21       96.62       22.48       
H           11.88       93.36       28.02       
H           9.37        96.2        24.79       
H           14.9        93.1        26.79       
H           14.77       93.33       25.11       
H           13.47177    92.37756    25.86435    
H           13.7        96.57       26.93       
H           14.09       95.17       28.0        
H           15.26298    95.71064    26.7902     
H           11.39       98.99       21.19       
H           12.96       99.72       20.72       
H           12.59442    99.46589    22.36797    
H           11.34       96.52       20.3        
H           11.96       97.7        19.27       
H           12.84182    96.13978    19.41541    
H           9.49        93.2        29.35       
H           16.94       99.43       17.79       
S           7.51        95.14       26.98       
C           9.09        93.69       28.47       
C           7.82        94.07       28.33       
C           22.26       100.2       16.45       
C           20.99       100.7       16.16       
C           22.29       99.17       17.37       
N           20.64       101.55      15.16       
N           18.72       100.82      16.52       
S           19.02       101.84      15.27       
H           21.27       97.93       18.81       
H           23.16       98.61       17.65       
C           21.1        98.72       18.12       
C           19.85       100.34      16.99       
C           19.89       99.29       18.01       
C           33.63       102.77      4.58        
C           33.21       101.51      5.01        
S           33.22       103.99      5.78        
C           29.27       100.57      9.57        
C           29.8        101.9       9.37        
C           29.48       102.94      10.29       
C           28.43       102.69      11.19       
C           27.91       101.38      11.35       
C           28.33       100.29      10.54       
C           27.66       103.7       12.04       
C           26.81       102.7       12.96       
C           26.95       101.39      12.47       
C           29.95       99.67       8.49        
C           30.83       100.69      7.78        
C           30.67       102.02      8.3         
C           25.86       102.96      13.98       
C           25.09       101.81      14.49       
C           25.34       100.52      14.01       
C           26.26       100.31      12.98       
C           31.65       100.51      6.7         
C           32.31       101.56      6.11        
C           32.24       102.82      6.69        
C           31.38       103.07      7.81        
C           28.52       104.6       12.98       
C           26.69       104.65      11.26       
C           30.81       98.54       9.08        
C           28.87       99.09       7.45        
H           28.0        99.31       10.59       
H           29.85       103.94      10.19       
H           31.74       99.6        6.19        
H           31.37       104.07      8.22        
H           25.66       103.96      14.24       
H           26.52       99.31       12.54       
H           29.23       105.21      12.38       
H           27.81       105.27      13.62       
H           29.04249    104.10575   13.79904    
H           25.9        103.96      10.91       
H           26.19       105.32      11.88       
H           27.15886    105.07558   10.37278    
H           28.31       98.37       7.98        
H           29.32       98.62       6.63        
H           28.22018    99.86426    7.04213     
H           30.17       97.82       9.69        
H           31.17       97.96       8.22        
H           31.60935    98.95768    9.69211     
H           23.5        102.7       15.83       
H           33.45       100.6       4.46        
S           24.23       99.34       14.84       
C           23.96       101.86      15.42       
C           23.48       100.62      15.75       
C           35.37       104.65      0.98        
C           34.7        103.37      0.92        
C           35.54       105.06      2.26        
N           34.42       102.7       -0.24       
N           33.67       101.45      1.9         
S           33.56       101.33      0.25        
H           35.11       105.0       4.38        
H           36.02       106.01      2.43        
C           35.0        104.45      3.41        
C           34.24       102.66      2.11        
C           34.3        103.25      3.41        
C           46.69       110.14      -7.92       
C           46.2        111.07      -7.05       
S           45.42       109.51      -8.8        
C           40.67       110.45      -4.64       
C           40.84       109.81      -5.91       
C           39.98       108.86      -6.33       
C           39.02       108.49      -5.44       
C           38.78       109.1       -4.16       
C           39.55       110.15      -3.82       
C           38.22       107.2       -5.55       
C           37.42       107.21      -4.22       
C           37.89       108.29      -3.36       
C           41.95       111.26      -4.35       
C           42.77       111.16      -5.7        
C           42.14       110.19      -6.48       
C           36.6        106.2       -3.78       
C           36.41       106.14      -2.36       
C           36.97       107.15      -1.53       
C           37.68       108.26      -1.92       
C           44.04       111.55      -5.78       
C           44.82       110.91      -6.8        
C           44.14       110.03      -7.66       
C           42.76       109.64      -7.55       
C           37.29       107.42      -6.83       
C           39.13       105.98      -5.6        
C           41.52       112.77      -4.15       
C           42.87       110.78      -3.21       
H           39.49       110.59      -2.8        
H           40.12       108.32      -7.29       
H           44.6        112.32      -5.18       
H           42.24       109.0       -8.28       
H           36.27       105.41      -4.38       
H           38.23       108.86      -1.19       
H           37.06       106.4       -7.09       
H           37.95       107.84      -7.59       
H           36.49365    108.13026   -6.6076     
H           39.73       106.03      -6.51       
H           38.42       105.08      -5.64       
H           39.75574    105.80223   -4.72539    
H           43.46       111.63      -2.87       
H           43.48       110.02      -3.54       
H           42.29564    110.30136   -2.41683    
H           40.57       112.69      -3.58       
H           42.15       113.36      -3.6        
H           41.26413    113.22326   -5.1077     
H           35.25       104.33      -1.91       
H           46.85       111.62      -6.43       
S           36.51       107.02      0.11        
C           35.76       105.19      -1.51       
C           35.84       105.43      -0.19       
C           50.97       109.76      -9.0        
C           49.96       108.8       -9.39       
C           50.34       110.85      -8.49       
N           50.15       107.72      -10.08      
N           47.94       107.71      -9.32       
S           48.93       106.7       -10.09      
H           48.64       111.88      -7.64       
H           50.94       111.75      -8.27       
C           48.93       110.97      -8.14       
C           48.55       108.84      -9.03       
C           48.05       109.95      -8.31       
C           63.77       117.8       -15.64      
C           62.69       117.19      -16.29      
S           63.53       117.55      -13.92      
C           58.36       113.76      -13.71      
C           59.38       114.21      -12.79      
C           59.28       113.98      -11.4       
C           58.25       113.22      -10.95      
C           57.36       112.65      -11.87      
C           57.34       112.93      -13.24      
C           57.83       112.9       -9.53       
C           56.66       111.84      -9.78       
C           56.39       111.81      -11.18      
C           58.55       114.32      -15.12      
C           59.91       114.98      -14.98      
C           60.32       115.06      -13.6       
C           55.71       111.43      -8.87       
C           54.53       110.8       -9.36       
C           54.29       110.75      -10.76      
C           55.22       111.22      -11.69      
C           60.57       115.66      -15.91      
C           61.75       116.4       -15.52      
C           62.17       116.41      -14.15      
C           61.46       115.72      -13.18      
C           59.0        112.38      -8.7        
C           57.13       114.11      -8.83       
C           58.58       113.14      -16.15      
C           57.42       115.3       -15.53      
H           56.57       112.5       -13.95      
H           60.0        114.4       -10.73      
H           60.29       115.66      -16.96      
H           61.78       115.76      -12.14      
H           55.72       111.66      -7.79       
H           54.98       111.29      -12.75      
H           59.1        113.02      -7.81       
H           59.96       112.72      -9.2        
H           59.07858    111.30134   -8.56427    
H           56.21       114.26      -9.44       
H           56.75       113.88      -7.88       
H           57.74214    115.00734   -8.73957    
H           56.53       114.71      -15.78      
H           57.73       116.0       -16.34      
H           57.10093    115.95851   -14.72213   
H           57.59       112.77      -16.27      
H           59.07       113.53      -17.06      
H           59.2968     112.36234   -15.88627   
H           53.23       110.42      -7.56       
H           62.53       117.51      -17.31      
S           52.7        110.1       -11.12      
C           53.43       110.29      -8.63       
C           52.35       109.9       -9.37       
C           66.28       120.9       -17.31      
C           66.47       120.51      -16.0       
C           65.41       120.17      -18.02      
N           67.48       120.95      -15.21      
N           66.28       119.05      -14.18      
S           67.41       120.16      -13.72      
H           63.93       118.66      -18.16      
H           65.26       120.34      -19.13      
C           64.63       119.15      -17.46      
C           65.83       119.35      -15.43      
C           64.76       118.77      -16.14      
C           71.49       132.7       -26.83      
C           70.17       132.83      -26.55      
S           72.47       132.24      -25.4       
C           67.84       129.41      -22.31      
C           69.23       129.68      -22.21      
C           70.1        128.84      -21.62      
C           69.72       127.77      -20.86      
C           68.33       127.42      -20.86      
C           67.38       128.25      -21.61      
C           70.48       126.74      -20.04      
C           69.39       125.65      -19.72      
C           68.13       126.07      -20.14      
C           67.22       130.27      -23.44      
C           68.42       131.1       -23.81      
C           69.59       130.75      -23.13      
C           69.48       124.56      -18.9       
C           68.32       123.83      -18.63      
C           67.12       124.08      -19.29      
C           67.02       125.21      -20.05      
C           68.5        131.83      -24.89      
C           69.79       132.17      -25.35      
C           70.95       131.88      -24.57      
C           70.86       131.1       -23.51      
C           71.62       126.15      -20.92      
C           71.0        127.28      -18.67      
C           66.75       129.4       -24.65      
C           66.03       131.0       -22.82      
H           66.42       127.88      -21.87      
H           71.14       129.07      -21.71      
H           67.62       132.23      -25.44      
H           71.74       130.92      -22.95      
H           70.4        124.31      -18.4       
H           66.02       125.47      -20.5       
H           72.45       126.82      -21.02      
H           72.04       125.33      -20.4       
H           71.30621    125.88104   -21.92861   
H           70.1        127.49      -18.04      
H           71.54       126.48      -18.19      
H           71.5566     128.21707   -18.68409   
H           65.07       130.44      -22.74      
H           65.79       131.69      -23.58      
H           66.3179     131.62009   -21.97106   
H           65.76       128.98      -24.37      
H           66.56       129.98      -25.52      
H           67.48405    128.63772   -24.91115   
H           68.92       122.19      -17.25      
H           69.44       133.16      -27.27      
S           65.83       122.9       -19.05      
C           68.11       122.65      -17.83      
C           66.9        122.01      -17.98      
C           73.5        132.18      -30.7       
C           72.57       133.28      -30.52      
C           73.74       131.46      -29.58      
N           72.16       134.15      -31.44      
N           70.92       134.32      -29.27      
S           70.95       135.04      -30.73      
H           73.37       130.92      -27.45      
H           74.41       130.58      -29.68      
C           73.15       131.65      -28.28      
C           71.82       133.34      -29.24      
C           72.16       132.6       -28.08      
C           83.04       129.92      -43.86      
C           82.97       131.16      -43.29      
S           82.3        128.61      -42.91      
C           79.76       131.92      -38.09      
C           80.03       130.62      -38.52      
C           79.45       129.58      -37.87      
C           78.49       129.84      -36.87      
C           78.16       131.18      -36.54      
C           78.86       132.26      -37.14      
C           77.88       128.81      -35.94      
C           76.94       129.69      -35.2       
C           77.07       131.05      -35.63      
C           80.73       132.84      -38.88      
C           81.26       131.89      -39.98      
C           80.79       130.61      -39.76      
C           76.18       129.37      -34.06      
C           75.48       130.51      -33.53      
C           75.59       131.84      -33.99      
C           76.39       132.1       -35.09      
C           81.97       132.11      -41.17      
C           82.34       131.11      -42.05      
C           81.85       129.83      -41.73      
C           81.04       129.62      -40.64      
C           77.19       127.66      -36.78      
C           78.77       128.15      -34.85      
C           80.01       134.02      -39.54      
C           81.74       133.27      -37.78      
H           78.62       133.23      -36.83      
H           79.64       128.55      -38.13      
H           82.34       133.08      -41.3       
H           80.64       128.6       -40.57      
H           76.3        128.31      -33.67      
H           76.55       133.09      -35.42      
H           77.89       127.22      -37.5       
H           77.01       126.84      -36.1       
H           76.20985    127.9033    -37.19013   
H           78.89       128.91      -34.04      
H           78.25       127.39      -34.24      
H           79.76225    127.83815   -35.17602   
H           81.23       133.7       -36.95      
H           82.11       132.33      -37.41      
H           82.59908    133.81732   -38.16797   
H           80.72       134.64      -40.09      
H           79.75       134.64      -38.67      
H           79.16899    133.6737    -40.14072   
H           74.59       129.68      -31.68      
H           83.49       132.04      -43.64      
S           74.61       132.99      -33.02      
C           74.79       130.54      -32.29      
C           74.2        131.77      -31.94      
C           84.86       128.58      -47.59      
C           85.56       129.56      -46.81      
C           83.69       128.08      -47.13      
N           86.69       130.26      -47.19      
N           85.65       131.12      -45.06      
S           86.92       131.35      -46.02      
H           82.33       127.96      -45.55      
H           83.12       127.32      -47.65      
C           83.24       128.46      -45.81      
C           84.98       130.07      -45.58      
C           83.78       129.49      -45.06      
C           87.81       121.66      -62.39      
C           87.42       120.86      -61.35      
S           88.38       123.23      -61.8       
C           86.23       123.48      -55.92      
C           86.91       124.21      -56.85      
C           87.39       125.49      -56.52      
C           87.09       126.04      -55.28      
C           86.29       125.29      -54.4       
C           85.87       124.05      -54.72      
C           87.29       127.48      -54.74      
C           86.65       127.38      -53.38      
C           86.09       126.06      -53.17      
C           85.88       122.1       -56.52      
C           86.57       122.08      -57.9       
C           87.15       123.41      -58.02      
C           86.52       128.36      -52.43      
C           86.01       128.0       -51.16      
C           85.48       126.68      -51.01      
C           85.44       125.73      -52.02      
C           86.73       121.16      -58.85      
C           87.31       121.55      -60.1       
C           87.77       122.88      -60.19      
C           87.8        123.81      -59.18      
C           88.72       127.85      -54.35      
C           86.65       128.66      -55.46      
C           86.41       120.99      -55.6       
C           84.35       122.13      -56.57      
H           85.2        123.52      -54.05      
H           88.06       125.94      -57.27      
H           86.49       120.14      -58.69      
H           88.22       124.81      -59.33      
H           87.1        129.28      -52.55      
H           85.04       124.78      -51.88      
H           89.22       128.06      -55.32      
H           88.76       128.81      -53.76      
H           89.2404     127.02018   -53.8718    
H           85.68       128.77      -55.08      
H           87.08       129.62      -55.2       
H           86.59182    128.55818   -56.54367   
H           83.99       121.81      -55.54      
H           83.96       123.17      -56.62      
H           83.87377    121.40845   -57.23383   
H           85.85       121.1       -54.71      
H           87.43       121.25      -55.34      
H           86.32781    119.95888   -55.94371   
H           86.33       129.8       -49.83      
H           87.2        119.81      -61.52      
S           84.85       126.51      -49.4       
C           85.85       128.86      -49.98      
C           85.28       128.17      -48.92      
C           89.49       120.54      -66.31      
C           88.78       121.84      -66.16      
C           89.58       119.81      -65.19      
N           88.85       122.8       -67.06      
N           87.69       123.45      -64.86      
S           88.1        124.07      -66.34      
H           89.27       119.57      -63.06      
H           90.23       118.97      -65.11      
C           88.97       120.2       -63.96      
C           88.18       122.21      -64.85      
C           88.21       121.31      -63.76      
C           91.82       115.39      -81.42      
C           91.2        114.69      -80.49      
S           92.56       116.82      -80.86      
C           91.73       116.14      -74.63      
C           92.24       117.02      -75.58      
C           92.72       118.31      -75.18      
C           92.51       118.71      -73.9       
C           91.97       117.8       -72.97      
C           91.64       116.48      -73.31      
C           92.56       120.14      -73.27      
C           92.25       119.8       -71.82      
C           91.78       118.47      -71.69      
C           90.95       115.09      -75.36      
C           91.46       115.3       -76.79      
C           92.24       116.45      -76.94      
C           91.96       120.72      -70.81      
C           91.34       120.2       -69.63      
C           90.99       118.85      -69.5       
C           91.15       117.99      -70.56      
C           91.11       114.69      -77.91      
C           91.47       115.2       -79.16      
C           92.26       116.4       -79.23      
C           92.69       116.96      -78.09      
C           94.03       120.63      -73.4       
C           91.53       121.2       -73.72      
C           91.35       113.66      -74.89      
C           89.48       115.33      -75.16      
H           91.32       115.74      -72.56      
H           92.88       119.09      -75.96      
H           90.36       113.87      -77.86      
H           93.3        117.8       -78.06      
H           92.25       121.77      -70.9       
H           90.66       117.0       -70.57      
H           94.34       120.61      -74.44      
H           94.09       121.66      -73.06      
H           94.65907    119.97972   -72.79213   
H           90.6        121.12      -73.08      
H           91.85       122.17      -73.33      
H           91.30486    121.26823   -74.78431   
H           89.24       114.77      -74.25      
H           89.03       114.82      -76.02      
H           89.16478    116.3716    -75.09833   
H           91.41       113.57      -73.83      
H           90.63       112.87      -75.11      
H           92.28205    113.31507   -75.33768   
H           90.85       122.1       -68.58      
H           90.73       113.67      -80.68      
S           90.19       118.56      -67.95      
C           90.8        120.98      -68.52      
C           90.21       120.23      -67.48      
C           92.29       114.87      -85.71      
C           91.11       114.3       -85.11      
C           93.2        115.38      -84.87      
N           90.06       113.67      -85.66      
N           89.88       113.86      -83.17      
S           88.98       113.26      -84.44      
H           93.89       115.93      -82.88      
H           94.15       115.61      -85.3       
C           92.99       115.59      -83.47      
C           90.97       114.4       -83.65      
C           91.9        115.15      -82.83      
C           101.09      109.78      -98.13      
C           101.16      111.07      -97.72      
S           99.49       109.15      -97.93      
C           97.26       113.62      -94.02      
C           96.77       112.38      -94.63      
C           95.64       111.76      -94.14      
C           94.8        112.38      -93.22      
C           95.3        113.55      -92.62      
C           96.51       114.08      -92.98      
C           93.5        111.93      -92.56      
C           93.36       112.94      -91.47      
C           94.46       113.83      -91.49      
C           98.56       114.12      -94.63      
C           98.73       112.99      -95.71      
C           97.74       112.01      -95.58      
C           92.48       113.02      -90.37      
C           92.68       113.9       -89.31      
C           93.79       114.77      -89.39      
C           94.65       114.75      -90.46      
C           99.92       112.78      -96.39      
C           99.99       111.56      -97.06      
C           99.0        110.59      -96.99      
C           97.86       110.77      -96.22      
C           92.3        111.93      -93.5       
C           93.69       110.53      -91.83      
C           98.5        115.57      -95.2       
C           99.79       114.03      -93.69      
H           96.8        114.97      -92.51      
H           95.38       110.83      -94.54      
H           100.81      113.44      -96.41      
H           97.08       110.02      -96.12      
H           91.56       112.38      -90.44      
H           95.46       115.42      -90.45      
H           91.41       111.4       -93.05      
H           92.56       111.45      -94.43      
H           91.92185    112.94083   -93.65272   
H           94.05       109.81      -92.49      
H           92.67       110.22      -91.58      
H           94.40169    110.52288   -91.00444   
H           100.72      114.37      -94.12      
H           100.03      112.96      -93.56      
H           99.7133     114.60877   -92.76954   
H           98.5        116.27      -94.43      
H           99.41       115.81      -95.72      
H           97.63196    115.77634   -95.82613   
H           91.0        113.48      -87.88      
H           102.06      111.59      -97.71      
S           93.98       115.5       -87.8       
C           91.89       114.01      -88.08      
C           92.56       114.72      -87.1       
C           104.3       106.78      -97.72      
C           103.06      106.48      -98.42      
C           104.43      108.15      -97.42      
N           102.76      105.2       -98.72      
N           101.06      106.85      -99.41      
S           101.26      105.24      -99.4       
H           103.64      110.06      -97.33      
H           105.27      108.51      -96.79      
C           103.43      109.08      -97.76      
C           102.05      107.43      -98.73      
C           102.18      108.84      -98.27      
C           111.06      99.08       -85.4       
C           111.56      100.28      -85.79      
S           110.23      98.32       -86.65      
C           110.1       102.67      -91.15      
C           109.68      101.35      -90.96      
C           108.96      100.67      -91.94      
C           108.58      101.33      -93.08      
C           108.9       102.73      -93.21      
C           109.71      103.33      -92.23      
C           107.43      100.89      -94.01      
C           107.35      102.12      -94.95      
C           108.14      103.18      -94.35      
C           110.86      103.2       -89.91      
C           110.85      101.97      -89.07      
C           110.15      100.93      -89.67      
C           106.42      102.45      -95.99      
C           106.2       103.82      -96.36      
C           107.12      104.78      -95.87      
C           108.0       104.49      -94.87      
C           111.48      101.79      -87.85      
C           111.21      100.65      -87.14      
C           110.45      99.63       -87.76      
C           109.93      99.73       -89.0       
C           107.85      99.6        -94.77      
C           105.96      100.97      -93.5       
C           112.2       103.82      -90.26      
C           109.96      104.24      -89.29      
H           110.0       104.31      -92.33      
H           108.59      99.63       -91.82      
H           111.95      102.69      -87.4       
H           109.31      98.94       -89.41      
H           105.89      101.72      -96.46      
H           108.62      105.25      -94.47      
H           107.86      98.8        -94.08      
H           107.05      99.39       -95.51      
H           108.85421   99.77215    -95.15734   
H           105.58      101.9       -93.1       
H           105.4       100.93      -94.43      
H           105.62939   100.11474   -92.91066   
H           109.91      105.18      -89.82      
H           110.43      104.43      -88.33      
H           108.97006   103.84258   -89.066     
H           111.98      104.78      -90.79      
H           112.73      104.06      -89.4       
H           112.83997   103.15939   -90.84492   
H           104.34      103.82      -97.48      
H           112.14      100.8       -85.12      
S           106.66      106.39      -96.36      
C           105.23      104.37      -97.23      
C           105.24      105.79      -97.23      
C           111.33      96.99       -81.51      
C           112.16      98.06       -81.82      
C           110.53      96.66       -82.52      
N           113.21      98.35       -81.09      
N           112.98      99.81       -83.11      
S           113.91      99.65       -81.77      
H           109.78      96.93       -84.52      
H           109.82      95.78       -82.43      
C           110.48      97.36       -83.78      
C           112.07      98.81       -83.08      
C           111.25      98.41       -84.17      
H           7.11        93.84       29.08       
H           111.29      96.49       -80.53      
