612

C           56.37       52.25       1.21        
C           55.19       52.01       1.92        
S           57.62       51.22       1.84        
C           54.2        47.32       5.74        
C           55.57       47.39       5.28        
C           56.49       46.34       5.56        
C           56.05       45.25       6.36        
C           54.69       45.18       6.7         
C           53.77       46.21       6.46        
C           56.92       44.21       7.06        
C           55.79       43.21       7.55        
C           54.55       43.9        7.4         
C           53.42       48.59       5.34        
C           54.34       49.1        4.2         
C           55.67       48.57       4.44        
C           55.94       41.96       8.2         
C           54.8        41.46       8.86        
C           53.59       42.17       8.87        
C           53.49       43.41       8.17        
C           54.16       50.26       3.46        
C           55.22       50.88       2.8         
C           56.53       50.33       2.99        
C           56.79       49.13       3.72        
C           57.8        43.35       6.05        
C           57.68       44.74       8.28        
C           52.0        48.27       4.82        
C           53.27       49.49       6.57        
H           52.8        46.14       6.98        
H           57.45       46.35       5.14        
H           53.12       50.64       3.38        
H           57.82       48.73       3.79        
H           56.8        41.32       8.07        
H           52.53       43.85       8.04        
H           58.42       42.67       6.59        
H           58.49       44.02       5.63        
H           57.15148    43.02218    5.23757     
H           56.95       44.89       9.08        
H           58.33       43.96       8.59        
H           58.18259    45.70084    8.16913     
H           52.27       49.57       6.95        
H           53.44       50.49       6.32        
H           53.97861    49.22601    7.35503     
H           51.47       47.52       5.47        
H           51.46       49.13       5.0         
H           51.99279    47.93833    3.78171     
H           55.39       39.48       9.63        
H           54.3        52.59       1.68        
S           52.24       41.29       9.71        
C           54.61       40.18       9.54        
C           53.39       39.97       10.16       
C           57.16       54.43       -2.5        
C           55.88       54.62       -1.84       
C           58.08       53.66       -1.87       
N           54.88       55.3        -2.34       
N           54.46       54.42       -0.03       
S           53.67       55.33       -1.18       
H           58.44       52.17       -0.37       
H           59.11       53.55       -2.28       
C           57.78       52.95       -0.68       
C           55.67       54.06       -0.51       
C           56.6        53.11       0.02        
C           63.22       58.78       -17.39      
C           63.81       59.02       -16.25      
S           61.57       58.27       -17.03      
C           61.74       57.22       -10.7       
C           60.83       57.15       -11.81      
C           59.6        56.74       -11.61      
C           59.18       56.41       -10.34      
C           60.08       56.37       -9.27       
C           61.41       56.86       -9.46       
C           57.73       56.41       -9.83       
C           57.92       56.12       -8.33       
C           59.33       56.04       -8.06       
C           63.12       57.78       -11.21      
C           62.86       57.9        -12.71      
C           61.49       57.6        -13.02      
C           56.96       56.08       -7.28       
C           57.44       55.88       -6.0        
C           58.81       55.79       -5.76       
C           59.8        55.95       -6.82       
C           63.74       58.42       -13.67      
C           63.2        58.59       -15.0       
C           61.84       58.19       -15.27      
C           60.97       57.71       -14.33      
C           57.08       57.81       -10.02      
C           56.87       55.3        -10.41      
C           63.43       59.12       -10.49      
C           64.18       56.72       -10.89      
H           62.18       57.18       -8.73       
H           58.88       56.86       -12.49      
H           64.77       58.62       -13.46      
H           59.98       57.44       -14.61      
H           55.9        56.19       -7.49       
H           60.87       56.05       -6.64       
H           57.19       58.01       -11.08      
H           56.02       57.68       -9.94       
H           57.51494    58.62913    -9.44733    
H           57.34       54.34       -10.22      
H           55.93       55.26       -9.95       
H           56.77331    55.24475    -11.4943    
H           64.29       56.54       -9.83       
H           63.76       55.78       -11.41      
H           65.1806     56.89942    -11.28334   
H           63.93       58.87       -9.56       
H           64.2        59.72       -11.11      
H           62.54851    59.7297     -10.29166   
H           55.61       55.31       -4.81       
H           64.86       59.31       -16.28      
S           59.17       55.38       -4.08       
C           56.72       55.42       -4.82       
C           57.46       55.04       -3.77       
C           65.09       59.18       -21.48      
C           63.77       58.58       -21.26      
C           65.5        59.75       -20.38      
N           63.08       58.0        -22.23      
N           61.88       57.82       -20.11      
S           61.7        57.35       -21.65      
H           65.65       59.97       -18.35      
H           66.48       60.31       -20.32      
C           64.92       59.63       -19.07      
C           63.05       58.5        -19.95      
C           63.73       58.97       -18.77      
C           69.08       65.94       -35.59      
C           68.44       64.71       -35.62      
S           69.83       66.15       -34.01      
C           67.87       61.13       -30.6       
C           68.76       62.14       -30.49      
C           69.49       62.38       -29.31      
C           69.22       61.62       -28.22      
C           68.2        60.69       -28.29      
C           67.54       60.38       -29.44      
C           69.71       61.94       -26.8       
C           68.91       60.87       -26.07      
C           67.98       60.21       -26.95      
C           67.23       61.1        -32.0       
C           67.94       62.28       -32.74      
C           68.79       62.92       -31.76      
C           68.71       60.79       -24.7       
C           67.53       60.19       -24.2       
C           66.77       59.42       -25.1       
C           66.87       59.44       -26.49      
C           67.71       62.79       -34.0       
C           68.43       63.95       -34.37      
C           69.23       64.58       -33.41      
C           69.51       64.01       -32.17      
C           71.25       61.66       -26.68      
C           69.49       63.46       -26.36      
C           67.61       59.78       -32.66      
C           65.7        61.3        -31.87      
H           66.84       59.61       -29.39      
H           70.11       63.21       -29.25      
H           67.21       62.19       -34.71      
H           70.13       64.54       -31.55      
H           69.31       61.32       -23.98      
H           66.22       58.96       -27.19      
H           71.68       61.93       -25.72      
H           71.81       62.32       -27.36      
H           71.52767    60.65163    -26.9869    
H           70.31       63.98       -26.78      
H           69.54       63.58       -25.27      
H           68.58673    63.91869    -26.76224   
H           65.2        60.35       -31.73      
H           65.41       61.68       -32.85      
H           65.47953    62.03032    -31.09146   
H           67.22       59.03       -31.99      
H           67.08       59.67       -33.64      
H           68.68163    59.58516    -32.61825   
H           67.6        60.51       -22.06      
H           67.84       64.4        -36.48      
S           65.41       58.59       -24.31      
C           67.03       60.08       -22.88      
C           65.92       59.29       -22.71      
C           70.2        69.2        -38.38      
C           69.57       68.05       -38.95      
C           70.29       69.14       -37.05      
N           69.18       67.92       -40.24      
N           68.27       66.14       -38.74      
S           68.13       66.66       -40.26      
H           69.99       68.3        -35.1       
H           70.63       70.06       -36.64      
C           69.82       68.15       -36.18      
C           69.03       67.0        -38.02      
C           69.36       66.97       -36.58      
C           77.54       79.05       -49.16      
C           77.67       77.74       -49.21      
S           76.97       79.6        -47.62      
C           75.27       74.17       -44.99      
C           75.55       75.47       -44.54      
C           75.05       75.9        -43.37      
C           74.37       75.07       -42.59      
C           74.29       73.66       -42.93      
C           74.75       73.19       -44.17      
C           74.01       75.26       -41.07      
C           73.4        73.87       -40.78      
C           73.58       73.01       -41.86      
C           76.1        73.86       -46.22      
C           76.77       75.2        -46.53      
C           76.31       76.17       -45.53      
C           72.72       73.41       -39.67      
C           72.13       72.11       -39.71      
C           72.29       71.28       -40.87      
C           73.05       71.75       -41.89      
C           77.38       75.74       -47.64      
C           77.33       77.07       -47.95      
C           76.93       77.97       -46.97      
C           76.57       77.55       -45.7       
C           75.25       75.55       -40.22      
C           72.88       76.27       -40.77      
C           77.23       72.82       -45.99      
C           75.06       73.48       -47.35      
H           74.47       72.17       -44.54      
H           75.11       76.97       -43.14      
H           77.66       75.07       -48.49      
H           76.23       78.27       -44.91      
H           72.58       73.99       -38.73      
H           73.17       71.06       -42.67      
H           74.98       76.0        -39.25      
H           75.96       76.29       -40.7       
H           75.84232    74.70682    -39.86461   
H           71.98       75.87       -41.19      
H           72.7        76.27       -39.69      
H           72.99903    77.23628    -41.26014   
H           75.42       73.87       -48.31      
H           74.04       73.91       -47.2       
H           74.86395    72.41261    -47.45166   
H           76.96       71.73       -45.9       
H           77.95       72.92       -46.78      
H           77.81042    72.90817    -45.07161   
H           71.01       71.79       -37.81      
H           77.9        77.17       -50.07      
S           71.61       69.75       -40.72      
C           71.33       71.39       -38.75      
C           70.93       70.18       -39.18      
C           77.34       81.92       -52.47      
C           77.46       80.54       -52.79      
C           77.41       82.25       -51.16      
N           77.42       80.11       -54.03      
N           77.88       78.33       -52.34      
S           77.65       78.48       -53.95      
H           77.51       81.78       -49.12      
H           77.38       83.32       -50.91      
C           77.61       81.3        -50.08      
C           77.62       79.51       -51.7       
C           77.6        79.93       -50.3       
C           77.96       94.94       -62.7       
C           78.78       94.7        -61.64      
S           77.01       93.51       -62.89      
C           78.64       89.56       -58.26      
C           77.68       89.6        -59.3       
C           76.75       88.61       -59.4       
C           76.58       87.65       -58.38      
C           77.36       87.83       -57.26      
C           78.44       88.68       -57.19      
C           75.92       86.32       -58.4       
C           76.13       85.81       -57.03      
C           77.01       86.71       -56.39      
C           79.65       90.67       -58.38      
C           78.97       91.56       -59.45      
C           77.93       90.82       -60.04      
C           75.76       84.64       -56.46      
C           76.44       84.28       -55.28      
C           77.33       85.18       -54.6       
C           77.5        86.47       -55.12      
C           79.34       92.84       -59.88      
C           78.69       93.37       -61.02      
C           77.76       92.55       -61.61      
C           77.32       91.37       -61.16      
C           74.38       86.48       -58.66      
C           76.54       85.26       -59.42      
C           79.76       91.43       -57.04      
C           81.01       90.21       -58.86      
H           79.09       88.75       -56.29      
H           76.03       88.61       -60.18      
H           80.19       93.37       -59.45      
H           76.44       90.96       -61.69      
H           75.11       83.97       -57.0       
H           78.22       87.19       -54.63      
H           74.25       86.81       -59.69      
H           73.96       85.45       -58.58      
H           73.83185    87.0914     -57.94319   
H           77.54       85.12       -59.2       
H           76.18       84.23       -59.35      
H           76.46203    85.59315    -60.45491   
H           81.84       90.65       -58.36      
H           81.21       90.36       -59.92      
H           81.17948    89.13416    -58.81579   
H           79.83       90.75       -56.2       
H           80.58       92.16       -56.99      
H           78.81056    91.9116     -56.80608   
H           75.77       82.26       -54.88      
H           79.31       95.57       -61.18      
S           77.84       84.54       -53.11      
C           76.34       83.06       -54.51      
C           77.1        83.02       -53.42      
C           77.67       97.71       -66.04      
C           78.74       97.78       -65.16      
C           76.75       96.75       -65.68      
N           79.71       98.7        -65.14      
N           79.99       97.02       -63.32      
S           80.78       98.31       -63.95      
H           76.04       95.18       -64.4       
H           75.81       96.67       -66.32      
C           76.88       95.83       -64.61      
C           78.86       96.95       -64.02      
C           77.93       95.89       -63.76      
C           77.6        102.92      -81.83      
C           77.08       101.78      -81.4       
S           78.02       103.95      -80.43      
C           76.71       100.19      -75.51      
C           77.28       101.41      -75.76      
C           77.52       102.33      -74.71      
C           77.43       101.85      -73.38      
C           76.89       100.55      -73.13      
C           76.63       99.69       -74.2       
C           78.02       102.45      -72.11      
C           77.9        101.22      -71.18      
C           76.94       100.27      -71.71      
C           76.72       99.37       -76.87      
C           76.69       100.49      -77.87      
C           77.23       101.64      -77.23      
C           78.39       101.12      -69.85      
C           77.87       99.99       -69.08      
C           76.93       99.09       -69.65      
C           76.57       99.12       -71.01      
C           76.45       100.52      -79.22      
C           76.9        101.63      -79.97      
C           77.54       102.68      -79.27      
C           77.71       102.73      -77.94      
C           79.47       102.9       -72.42      
C           77.09       103.59      -71.58      
C           78.02       98.58       -76.9       
C           75.38       98.6        -77.15      
H           76.44       98.67       -73.93      
H           78.0        103.3       -74.97      
H           76.02       99.74       -79.8       
H           78.05       103.65      -77.42      
H           78.99       101.77      -69.34      
H           76.15       98.26       -71.52      
H           79.47       103.85      -73.0       
H           79.84       103.35      -71.49      
H           80.03846    102.0653    -72.83015   
H           76.23       103.05      -71.17      
H           77.54       103.83      -70.64      
H           76.87703    104.44188   -72.22578   
H           75.42       98.39       -78.22      
H           74.53       99.34       -77.03      
H           75.25786    97.74502    -76.48502   
H           77.85       97.67       -76.33      
H           78.75       99.14       -76.42      
H           78.31876    98.25278    -77.89588   
H           78.9        100.26      -67.12      
H           76.82       101.03      -82.11      
S           76.73       97.73       -68.56      
C           78.2        99.65       -67.72      
C           77.5        98.53       -67.26      
C           78.89       104.48      -85.66      
C           78.13       103.32      -85.64      
C           79.11       105.09      -84.47      
N           77.96       102.46      -86.68      
N           76.95       101.66      -84.61      
S           77.08       101.21      -86.18      
H           78.92       105.17      -82.35      
H           79.79       105.95      -84.4       
C           78.62       104.58      -83.23      
C           77.61       102.82      -84.33      
C           77.9        103.45      -83.1       
C           92.0        104.6       -95.77      
C           92.01       105.38      -94.62      
S           90.35       104.27      -96.27      
C           86.95       105.74      -91.12      
C           86.76       105.16      -92.41      
C           85.51       104.79      -92.85      
C           84.46       104.85      -91.98      
C           84.66       105.4       -90.67      
C           85.94       105.83      -90.26      
C           83.12       104.08      -91.87      
C           82.4        104.79      -90.66      
C           83.46       105.3       -89.87      
C           88.4        106.22      -90.91      
C           89.02       105.84      -92.26      
C           88.09       105.09      -93.03      
C           81.09       104.63      -90.25      
C           80.83       104.93      -88.91      
C           81.86       105.48      -88.07      
C           83.14       105.7       -88.59      
C           90.35       105.97      -92.68      
C           90.7        105.39      -93.99      
C           89.7        104.77      -94.75      
C           88.36       104.51      -94.26      
C           82.34       104.17      -93.18      
C           83.34       102.6       -91.29      
C           88.35       107.76      -90.56      
C           88.93       105.39      -89.73      
H           86.02       106.34      -89.33      
H           85.44       104.33      -93.81      
H           91.11       106.44      -92.06      
H           87.62       104.02      -94.87      
H           80.4        104.02      -90.85      
H           83.87       106.19      -87.99      
H           82.97       103.85      -93.97      
H           81.59       103.46      -93.19      
H           81.92176    105.15535   -93.38558   
H           83.73       102.52      -90.18      
H           82.31       102.21      -91.21      
H           83.96674    101.98767   -91.93835   
H           88.25       105.46      -88.86      
H           88.98       104.35      -89.94      
H           89.907      105.65977   -89.32899   
H           88.69       108.09      -89.56      
H           87.25       107.89      -90.48      
H           88.79809    108.40724   -91.31392   
H           78.92       103.92      -88.49      
H           92.84       105.84      -94.04      
S           81.21       105.71      -86.5       
C           79.7        104.54      -88.12      
C           79.65       104.93      -86.78      
C           95.08       102.68      -98.41      
C           95.26       103.99      -97.91      
C           93.96       102.06      -97.85      
N           96.31       104.76      -98.17      
N           94.55       105.87      -96.67      
S           95.99       106.13      -97.34      
H           92.18       102.09      -96.6       
H           93.75       101.0       -98.01      
C           92.95       102.77      -97.09      
C           94.19       104.66      -97.1       
C           92.96       104.09      -96.72      
C           102.59      90.07       -105.29     
C           101.24      90.26       -105.51     
S           103.43      91.59       -104.96     
C           98.74       95.42       -103.64     
C           100.1       95.57       -104.0      
C           100.75      96.73       -103.7      
C           100.06      97.76       -103.11     
C           98.76       97.43       -102.58     
C           98.12       96.21       -102.75     
C           100.35      99.29       -102.78     
C           99.2        99.62       -101.84     
C           98.22       98.61       -101.89     
C           98.11       94.09       -104.3      
C           99.41       93.46       -104.85     
C           100.54      94.26       -104.54     
C           98.91       100.79      -101.17     
C           97.7        100.97      -100.47     
C           96.75       99.92       -100.56     
C           97.03       98.72       -101.25     
C           99.57       92.18       -105.43     
C           100.8       91.62       -105.36     
C           101.92      92.5        -105.08     
C           101.81      93.83       -104.72     
C           101.75      99.44       -102.07     
C           100.32      100.15      -104.06     
C           97.57       93.11       -103.26     
C           96.98       94.29       -105.34     
H           97.19       95.96       -102.38     
H           101.73      96.9        -104.1      
H           98.71       91.52       -105.61     
H           102.59      94.45       -104.36     
H           99.6        101.6       -101.27     
H           96.31       97.88       -101.14     
H           102.35      100.28      -102.49     
H           102.44      98.56       -102.29     
H           101.71346   99.47654    -100.98123  
H           99.35       100.63      -104.24     
H           100.97      101.01      -103.84     
H           100.81154   99.74846    -104.94615  
H           96.17       93.58       -105.1      
H           97.4        93.92       -106.31     
H           96.58047    95.29597    -105.46842  
H           96.67       93.5        -102.75     
H           97.13       92.26       -103.73     
H           98.25445    92.78174    -102.47777  
H           97.62       103.09      -99.6       
H           100.52      89.48       -105.81     
S           95.39       100.25      -99.59      
C           97.17       102.05      -99.68      
C           95.94       101.84      -99.25      
C           105.15      86.4        -105.17     
C           103.7       86.37       -105.2      
C           105.63      87.68       -105.41     
N           103.02      85.19       -105.29     
N           101.58      87.26       -105.27     
S           101.41      85.58       -105.18     
H           105.27      89.79       -105.72     
H           106.71      87.87       -105.42     
C           104.79      88.83       -105.56     
C           102.9       87.56       -105.32     
C           103.43      88.86       -105.36     
C           116.96      74.63       -105.49     
C           117.2       76.0        -105.54     
S           115.27      74.35       -105.53     
C           112.92      80.37       -105.75     
C           112.48      79.01       -105.67     
C           111.14      78.7        -105.51     
C           110.27      79.79       -105.33     
C           110.69      81.11       -105.47     
C           112.02      81.44       -105.69     
C           108.79      79.65       -104.95     
C           108.37      81.15       -105.03     
C           109.48      81.95       -105.36     
C           114.47      80.39       -105.85     
C           114.78      78.86       -105.82     
C           113.64      78.1        -105.67     
C           107.18      81.82       -104.71     
C           107.06      83.22       -104.83     
C           108.21      83.98       -105.13     
C           109.45      83.32       -105.4      
C           115.99      78.26       -105.88     
C           116.1       76.85       -105.72     
C           114.83      76.08       -105.65     
C           113.62      76.72       -105.61     
C           107.97      78.88       -106.04     
C           108.67      78.96       -103.58     
C           114.84      81.07       -107.23     
C           115.23      80.97       -104.69     
H           112.41      82.5        -105.75     
H           110.85      77.7        -105.43     
H           116.92      78.92       -105.98     
H           112.7       76.2        -105.58     
H           106.28      81.24       -104.42     
H           110.31      83.88       -105.67     
H           108.34      77.85       -106.06     
H           108.32      79.29       -107.03     
H           106.89372   78.93665    -105.87714  
H           108.82      77.92       -103.57     
H           107.64      79.07       -103.26     
H           109.3519    79.44904    -102.88433  
H           116.26      81.16       -105.04     
H           115.41      80.27       -103.89     
H           114.79856   81.88322    -104.28013  
H           114.82      82.14       -107.11     
H           115.83      80.74       -107.46     
H           114.17758   80.90439    -108.07963  
H           104.86      83.51       -104.55     
H           118.19      76.45       -105.48     
S           107.78      85.67       -105.26     
C           105.86      84.01       -104.71     
C           106.11      85.35       -104.88     
C           120.04      71.43       -105.16     
C           118.68      71.06       -105.17     
C           120.3       72.79       -105.41     
N           118.17      69.85       -105.09     
N           116.38      71.54       -105.49     
S           116.54      69.98       -105.0      
H           119.56      74.76       -105.24     
H           121.3       73.16       -105.43     
C           119.27      73.76       -105.41     
C           117.64      72.06       -105.38     
C           117.91      73.48       -105.38     
C           134.72      64.09       -102.42     
C           134.52      65.29       -102.98     
S           133.31      63.08       -102.24     
C           129.08      67.55       -104.03     
C           128.98      66.19       -103.65     
C           127.74      65.59       -103.67     
C           126.64      66.31       -103.96     
C           126.72      67.71       -104.27     
C           127.95      68.34       -104.21     
C           125.15      65.75       -104.09     
C           124.43      67.11       -104.36     
C           125.37      68.21       -104.43     
C           130.5       68.03       -104.24     
C           131.16      66.74       -103.79     
C           130.34      65.67       -103.39     
C           123.09      67.36       -104.66     
C           122.67      68.67       -104.89     
C           123.58      69.71       -104.82     
C           124.97      69.52       -104.64     
C           132.51      66.68       -103.82     
C           133.12      65.54       -103.25     
C           132.27      64.44       -102.89     
C           130.83      64.47       -102.93     
C           125.04      64.81       -105.29     
C           124.62      65.11       -102.77     
C           130.94      68.29       -105.68     
C           130.9       69.22       -103.2      
H           127.98      69.38       -104.48     
H           127.68      64.46       -103.57     
H           133.1       67.54       -104.07     
H           130.25      63.65       -102.58     
H           122.3       66.59       -104.49     
H           125.65      70.4        -104.71     
H           125.65      63.89       -105.13     
H           125.47      65.29       -106.07     
H           124.03849   64.56658    -105.6447   
H           124.97      64.14       -102.76     
H           123.5       65.07       -102.71     
H           124.98389   65.56664    -101.84958  
H           131.99      69.38       -103.03     
H           130.43      69.1        -102.21     
H           130.56029   70.21022    -103.50357  
H           130.55      69.26       -106.03     
H           132.12      68.45       -105.72     
H           130.58575   67.47037    -106.30515  
H           120.44      68.61       -105.14     
H           135.29      66.01       -103.17     
S           122.77      71.27       -105.07     
C           121.28      69.22       -105.09     
C           121.18      70.58       -105.06     
C           138.55      62.44       -101.06     
C           138.36      63.84       -101.07     
C           137.46      61.76       -101.5      
N           139.25      64.68       -100.55     
N           137.3       65.79       -101.57     
S           138.7       66.2        -100.79     
H           135.4       61.63       -101.99     
H           137.49      60.67       -101.41     
C           136.24      62.34       -101.78     
C           137.16      64.47       -101.54     
C           136.04      63.65       -101.93     
H           53.27       39.37       11.07       
H           139.55      62.02       -101.07     
