612

C           0.89        35.83       27.45       
C           -0.31       35.98       26.97       
S           1.07        34.34       28.39       
C           -4.83       32.1        27.97       
C           -3.56       31.73       28.48       
C           -3.43       30.61       29.29       
C           -4.51       29.77       29.54       
C           -5.82       30.1        29.04       
C           -5.98       31.33       28.34       
C           -4.56       28.47       30.26       
C           -6.04       28.04       30.18       
C           -6.76       29.03       29.44       
C           -4.71       33.41       27.22       
C           -3.22       33.62       27.26       
C           -2.58       32.72       28.15       
C           -6.63       26.87       30.59       
C           -8.04       26.72       30.32       
C           -8.74       27.76       29.62       
C           -8.1        28.93       29.18       
C           -2.61       34.77       26.86       
C           -1.25       34.93       27.3        
C           -0.62       33.96       28.08       
C           -1.19       32.8        28.5        
C           -3.67       27.52       29.45       
C           -4.13       28.57       31.76       
C           -5.22       33.14       25.76       
C           -5.6        34.44       27.91       
H           -6.94       31.61       27.99       
H           -2.4        30.18       29.5        
H           -2.98       35.56       26.19       
H           -0.74       32.12       29.16       
H           -6.12       26.2        31.24       
H           -8.62       29.7        28.58       
H           -3.54       26.63       30.04       
H           -2.61       27.83       29.43       
H           -3.90783    27.39409    28.39374    
H           -3.34       29.29       31.87       
H           -3.76       27.58       32.06       
H           -4.91946    28.91765    32.42633    
H           -6.54       33.89       28.14       
H           -5.09       34.71       28.85       
H           -5.80302    35.35707    27.35696    
H           -6.21       32.77       25.88       
H           -5.3        34.04       25.15       
H           -4.65742    32.42399    25.16089    
H           -8.69       24.72       30.97       
H           -0.52       36.85       26.32       
S           -10.46      27.48       29.46       
C           -8.96       25.68       30.52       
C           -10.24      25.91       30.2        
C           4.72        37.88       26.5        
C           3.69        37.75       25.52       
C           4.45        37.17       27.61       
N           3.79        38.2        24.27       
N           1.68        36.94       24.61       
S           2.5         37.66       23.36       
H           3.16        36.06       28.9        
H           5.17        37.13       28.38       
C           3.22        36.54       27.94       
C           2.42        37.07       25.76       
C           2.15        36.44       27.02       
C           21.1        40.56       26.38       
C           20.37       40.18       27.47       
S           20.07       40.74       24.95       
C           14.33       39.33       27.32       
C           14.95       39.48       26.07       
C           14.26       39.41       24.88       
C           12.85       39.2        25.02       
C           12.23       39.05       26.26       
C           12.94       39.05       27.44       
C           11.86       38.95       23.87       
C           10.51       39.0        24.61       
C           10.78       39.09       26.02       
C           15.43       38.99       28.36       
C           16.64       39.57       27.7        
C           16.36       39.78       26.33       
C           9.21        38.91       24.19       
C           8.16        38.78       25.17       
C           8.5         38.96       26.56       
C           9.77        39.0        26.97       
C           17.92       39.6        28.17       
C           18.93       39.98       27.19       
C           18.6        40.26       25.84       
C           17.31       40.12       25.36       
C           12.0        40.1        22.85       
C           12.07       37.57       23.28       
C           15.17       39.88       29.62       
C           15.7        37.48       28.7        
H           12.5        38.89       28.45       
H           14.65       39.6        23.93       
H           18.24       39.25       29.19       
H           17.03       40.35       24.36       
H           8.99        38.68       23.14       
H           10.03       39.06       28.02       
H           13.05       40.42       22.79       
H           11.51       40.95       23.38       
H           11.52663    39.89918    21.88891    
H           12.97       37.43       22.65       
H           11.21       37.21       22.68       
H           12.07694    36.77201    24.02247    
H           15.37       37.31       29.71       
H           16.74       37.17       28.52       
H           15.10545    36.78636    28.10545    
H           14.38       39.43       30.22       
H           16.05       39.92       30.32       
H           14.9777     40.91544    29.33895    
H           6.4         38.1        24.01       
H           20.8        40.1        28.38       
S           7.09        38.92       27.53       
C           6.76        38.39       24.98       
C           6.08        38.34       26.23       
C           25.29       42.05       26.16       
C           24.59       41.95       27.41       
C           24.55       41.58       25.09       
N           25.12       42.45       28.58       
N           22.83       41.42       28.85       
S           23.93       42.25       29.76       
H           22.75       40.56       24.39       
H           25.11       41.35       24.22       
C           23.23       41.08       25.22       
C           23.22       41.45       27.55       
C           22.49       41.08       26.37       
C           41.22       46.34       25.75       
C           40.27       47.05       25.05       
S           40.41       45.13       26.64       
C           34.48       45.13       24.65       
C           35.28       44.58       25.69       
C           34.79       43.68       26.57       
C           33.52       43.27       26.43       
C           32.67       43.85       25.5        
C           33.08       44.88       24.58       
C           32.79       42.32       27.42       
C           31.39       42.48       26.93       
C           31.35       43.38       25.78       
C           35.32       46.03       23.72       
C           36.64       45.99       24.5        
C           36.62       45.03       25.53       
C           30.19       41.87       27.33       
C           29.06       42.16       26.59       
C           29.08       42.96       25.39       
C           30.22       43.64       24.99       
C           37.79       46.73       24.23       
C           38.98       46.43       24.93       
C           38.9        45.34       25.79       
C           37.72       44.82       26.26       
C           33.15       40.81       27.18       
C           32.97       42.88       28.83       
C           35.41       45.32       22.3        
C           34.65       47.43       23.63       
H           32.43       45.38       23.9        
H           35.47       43.14       27.18       
H           37.86       47.44       23.43       
H           37.75       44.15       27.09       
H           30.14       41.26       28.22       
H           30.22       44.26       24.13       
H           34.14       40.91       26.85       
H           32.67       40.42       26.26       
H           32.94268    40.11654    27.995      
H           34.01       42.73       29.0        
H           32.41       42.27       29.52       
H           32.73945    43.93908    28.94527    
H           33.7        47.34       23.16       
H           34.52       47.89       24.66       
H           35.14267    48.14472    22.97079    
H           34.65       45.67       21.61       
H           35.17       44.31       22.46       
H           36.40147    45.33437    21.84737    
H           27.42       41.24       27.88       
H           40.47       48.01       24.47       
S           27.44       43.01       24.75       
C           27.68       41.82       26.98       
C           26.72       42.14       26.11       
C           45.52       46.89       26.6        
C           44.71       47.93       26.07       
C           44.82       45.73       26.73       
N           45.1        49.2        25.73       
N           42.74       48.91       25.22       
S           43.83       50.08       25.26       
H           43.11       44.52       26.38       
H           45.35       44.88       27.19       
C           43.53       45.56       26.29       
C           43.35       47.82       25.63       
C           42.7        46.55       25.93       
C           60.63       50.36       31.68       
C           59.67       51.28       31.57       
S           59.97       48.76       31.94       
C           53.8        50.08       30.99       
C           54.63       48.89       31.16       
C           54.14       47.61       31.1        
C           52.87       47.43       30.6        
C           52.08       48.57       30.29       
C           52.45       49.86       30.59       
C           52.16       46.06       30.33       
C           51.04       46.57       29.53       
C           50.87       48.02       29.76       
C           54.66       51.4        30.97       
C           56.0        50.84       31.21       
C           56.01       49.42       31.32       
C           50.13       45.88       28.74       
C           49.02       46.6        28.26       
C           48.84       47.96       28.59       
C           49.75       48.67       29.21       
C           57.14       51.5        31.35       
C           58.29       50.75       31.56       
C           58.33       49.36       31.69       
C           57.15       48.66       31.64       
C           53.07       45.16       29.39       
C           51.62       45.42       31.58       
C           54.62       52.04       29.57       
C           54.1        52.4        32.02       
H           51.78       50.65       30.35       
H           54.77       46.71       31.16       
H           57.27       52.51       31.11       
H           57.16       47.59       31.67       
H           50.28       44.86       28.53       
H           49.74       49.79       29.25       
H           54.01       44.89       29.87       
H           52.62       44.13       29.16       
H           53.29251    45.74857    28.49996    
H           51.0        46.24       31.97       
H           50.91       44.57       31.36       
H           52.34414    45.16237    32.35288    
H           53.49       53.12       31.4        
H           54.95       52.85       32.44       
H           53.44788    51.96037    32.7747     
H           55.19       53.01       29.5        
H           53.49       52.19       29.42       
H           54.80562    51.4144     28.69692    
H           47.7        45.04       27.22       
H           59.82       52.38       31.43       
S           47.3        48.57       27.96       
C           47.86       46.12       27.49       
C           46.86       47.1        27.13       
C           64.8        51.34       32.56       
C           64.06       51.9        31.46       
C           64.11       50.33       33.07       
N           64.46       52.98       30.8        
N           62.24       52.3        30.06       
S           63.39       53.4        29.63       
H           62.26       49.19       33.39       
H           64.46       49.78       33.92       
C           62.8        49.96       32.77       
C           62.73       51.54       31.09       
C           62.06       50.51       31.76       
C           79.39       51.2        39.33       
C           79.34       51.38       37.96       
S           77.98       51.88       40.12       
C           74.12       52.67       35.36       
C           74.1        52.76       36.73       
C           72.92       52.74       37.5        
C           71.75       52.68       36.82       
C           71.74       52.67       35.43       
C           72.94       52.68       34.68       
C           70.39       52.47       37.43       
C           69.58       52.34       36.17       
C           70.33       52.52       34.97       
C           75.48       52.57       34.72       
C           76.32       52.5        36.01       
C           75.46       52.72       37.16       
C           68.27       52.06       36.1        
C           67.65       52.05       34.8        
C           68.45       52.26       33.68       
C           69.77       52.39       33.69       
C           77.64       52.08       36.22       
C           78.12       51.95       37.56       
C           77.27       52.29       38.59       
C           75.89       52.64       38.47       
C           70.41       51.05       38.18       
C           69.85       53.69       38.21       
C           75.58       51.24       33.94       
C           75.7        53.85       33.86       
H           72.93       52.65       33.6        
H           73.02       52.82       38.58       
H           78.26       51.59       35.44       
H           75.22       52.68       39.28       
H           67.73       51.84       37.03       
H           70.39       52.29       32.84       
H           71.05       51.03       39.06       
H           69.41       50.9        38.48       
H           70.65156    50.19357    37.55049    
H           70.03       54.6        37.59       
H           68.75       53.78       38.03       
H           70.21293    53.78436    39.23346    
H           74.97       53.89       33.02       
H           75.44       54.72       34.42       
H           76.72127    54.0613     33.54305    
H           75.03       51.15       33.09       
H           76.6        51.37       33.52       
H           75.55858    50.35465    34.57545    
H           65.43       51.68       35.18       
H           80.12       51.08       37.32       
S           67.57       51.88       32.2        
C           66.23       51.91       34.46       
C           66.03       51.79       33.12       
C           81.63       48.58       41.99       
C           81.24       49.93       42.42       
C           81.22       48.27       40.76       
N           81.37       50.43       43.72       
N           80.47       52.1        42.1        
S           80.84       52.0        43.66       
H           80.24       48.86       38.93       
H           81.49       47.34       40.21       
C           80.61       49.19       39.88       
C           80.68       50.91       41.5        
C           80.33       50.47       40.18       
C           92.28       37.28       47.18       
C           91.58       37.14       46.05       
S           91.97       38.74       48.1        
C           87.7        41.47       44.52       
C           88.38       41.78       45.67       
C           88.01       42.87       46.45       
C           86.94       43.62       46.03       
C           86.23       43.22       44.87       
C           86.59       42.13       44.08       
C           86.86       45.13       46.1        
C           85.39       45.19       45.6        
C           85.19       44.16       44.64       
C           88.5        40.46       43.69       
C           89.35       39.89       44.78       
C           89.32       40.75       45.95       
C           84.48       46.27       45.6        
C           83.6        46.48       44.49       
C           83.54       45.48       43.49       
C           84.27       44.25       43.56       
C           90.03       38.65       44.7        
C           90.76       38.33       45.83       
C           90.81       39.23       46.91       
C           90.11       40.44       47.06       
C           87.13       45.76       47.51       
C           87.73       45.83       44.98       
C           87.53       39.32       43.19       
C           89.35       41.17       42.58       
H           85.95       41.79       43.33       
H           88.64       43.16       47.32       
H           90.0        37.96       43.88       
H           90.15       41.11       47.9        
H           84.56       46.94       46.45       
H           84.26       43.6        42.66       
H           88.14       45.63       47.86       
H           86.91       46.77       47.55       
H           86.49918    45.21329    48.21091    
H           87.6        45.46       44.0        
H           87.33       46.87       44.8        
H           88.79984    45.88237    45.182      
H           89.97       40.41       42.03       
H           90.05       41.88       43.08       
H           88.76811    41.67477    41.80882    
H           86.89       39.73       42.39       
H           88.08       38.51       42.74       
H           86.91708    38.8973     43.98609    
H           82.71       48.52       44.78       
H           91.79       36.41       45.28       
S           82.49       45.91       42.21       
C           82.8        47.63       44.14       
C           82.25       47.57       42.87       
C           95.75       34.74       48.28       
C           94.53       34.21       47.65       
C           95.58       36.11       48.64       
N           94.46       33.01       47.17       
N           92.31       34.25       46.94       
S           92.93       32.86       46.46       
H           94.45       37.94       48.54       
H           96.49       36.68       49.05       
C           94.38       36.88       48.42       
C           93.26       34.95       47.54       
C           93.24       36.36       47.86       
C           110.95      32.86       43.4        
C           110.69      33.77       44.42       
S           109.65      31.8        43.11       
C           105.44      33.69       47.49       
C           105.59      32.67       46.51       
C           104.59      31.7        46.25       
C           103.34      31.9        46.89       
C           103.17      32.93       47.78       
C           104.24      33.77       48.16       
C           102.07      31.09       46.65       
C           101.1       31.96       47.38       
C           101.72      33.03       48.06       
C           106.8       34.24       47.79       
C           107.6       33.86       46.56       
C           106.93      32.77       45.96       
C           99.76       31.88       47.21       
C           98.9        32.81       47.85       
C           99.5        33.84       48.66       
C           100.91      33.95       48.74       
C           108.86      34.29       46.11       
C           109.39      33.55       45.03       
C           108.73      32.45       44.44       
C           107.47      32.05       44.85       
C           101.9       31.07       45.12       
C           102.13      29.69       47.32       
C           106.77      35.76       47.77       
C           107.51      33.61       48.99       
H           104.07      34.57       48.88       
H           104.62      30.92       45.52       
H           109.41      35.08       46.67       
H           106.91      31.34       44.23       
H           99.26       31.1        46.59       
H           101.25      34.9        49.11       
H           102.79      30.61       44.65       
H           101.09      30.36       44.99       
H           101.61833   32.01611    44.65778    
H           102.2       29.82       48.38       
H           101.15      29.2        47.14       
H           102.91545   28.99998    47.01169    
H           108.57      33.96       49.02       
H           107.46      32.53       49.0        
H           107.15759   33.94859    49.9643     
H           106.23      36.09       48.63       
H           107.8       36.14       47.86       
H           106.28061   36.17846    46.89052    
H           96.85       32.16       47.39       
H           111.39      34.38       44.85       
S           98.29       34.99       49.27       
C           97.46       32.87       47.91       
C           97.01       34.04       48.46       
C           114.87      31.88       41.58       
C           114.68      32.87       42.54       
C           113.65      31.25       41.21       
N           115.75      33.49       43.0        
N           113.57      34.32       43.91       
S           115.19      34.53       44.11       
H           111.58      31.01       41.45       
H           113.56      30.53       40.43       
C           112.42      31.68       41.79       
C           113.41      33.35       43.03       
C           112.2       32.72       42.68       
C           128.98      24.82       35.79       
C           128.08      25.39       34.95       
S           128.52      25.09       37.51       
C           122.98      28.4        36.99       
C           123.95      27.98       37.93       
C           123.74      28.36       39.29       
C           122.55      28.92       39.68       
C           121.56      29.21       38.68       
C           121.81      29.01       37.34       
C           121.99      29.32       41.05       
C           120.53      29.75       40.72       
C           120.35      29.73       39.29       
C           123.56      28.09       35.59       
C           124.91      27.38       35.86       
C           125.13      27.39       37.28       
C           119.6       30.27       41.56       
C           118.41      30.66       41.03       
C           118.15      30.61       39.65       
C           119.16      30.26       38.73       
C           125.89      26.71       35.08       
C           126.98      26.07       35.65       
C           127.11      26.04       37.06       
C           126.11      26.58       37.88       
C           121.88      28.11       42.03       
C           122.85      30.49       41.68       
C           122.69      27.05       34.89       
C           123.89      29.32       34.74       
H           121.06      29.18       36.59       
H           124.4       28.19       40.1        
H           125.94      26.69       34.01       
H           125.93      26.45       38.9        
H           119.76      30.26       42.67       
H           119.08      30.26       37.64       
H           122.87      27.94       42.44       
H           121.12      28.33       42.84       
H           121.52023   27.2175     41.51803    
H           123.94      30.26       41.72       
H           122.57      30.52       42.75       
H           122.60946   31.4451     41.21306    
H           124.23      29.0        33.73       
H           124.72      29.82       35.24       
H           123.1073    30.03747    34.4936     
H           121.69      27.36       34.58       
H           123.22      26.83       33.94       
H           122.55639   26.12176    35.44554    
H           117.47      31.5        42.86       
H           128.07      25.2        33.86       
S           116.41      31.02       39.4        
C           117.35      31.22       41.81       
C           116.14      31.33       41.15       
C           132.38      22.15       34.97       
C           131.29      22.32       33.96       
C           132.12      22.84       36.12       
N           131.22      21.82       32.72       
N           129.17      23.06       33.32       
S           129.69      22.07       32.1        
H           131.05      24.27       37.29       
H           132.9       22.8        36.87       
C           131.06      23.68       36.35       
C           130.1       23.09       34.25       
C           130.0       23.81       35.49       
C           148.55      20.11       32.05       
C           147.85      21.16       31.69       
S           147.53      18.97       32.94       
C           141.86      21.69       32.42       
C           142.51      20.64       33.08       
C           141.81      19.8        33.98       
C           140.45      20.09       34.21       
C           139.77      21.13       33.56       
C           140.48      21.97       32.68       
C           139.45      19.45       35.22       
C           138.15      20.26       34.99       
C           138.35      21.19       33.92       
C           142.79      22.59       31.58       
C           144.1       21.8        31.86       
C           143.89      20.65       32.71       
C           136.95      20.22       35.68       
C           135.86      20.87       35.01       
C           136.08      21.65       33.87       
C           137.32      21.86       33.33       
C           145.47      22.01       31.57       
C           146.46      21.06       31.87       
C           146.13      19.88       32.56       
C           144.83      19.71       33.02       
C           139.23      17.91       34.81       
C           140.17      19.67       36.6        
C           142.39      22.49       30.05       
C           142.92      24.01       32.12       
H           140.05      22.95       32.35       
H           142.32      18.91       34.45       
H           145.77      22.88       30.93       
H           144.57      18.75       33.53       
H           136.84      19.75       36.7        
H           137.47      22.59       32.54       
H           140.26      17.52       34.76       
H           138.88      17.69       33.83       
H           138.47643   17.42406    35.42976    
H           141.19      19.25       36.43       
H           139.73      19.19       37.47       
H           140.24727   20.7307     36.83883    
H           141.96      24.53       31.97       
H           142.98      24.02       33.24       
H           143.73819   24.63441    31.76114    
H           142.41      23.45       29.57       
H           141.38      22.16       29.92       
H           143.09255   21.98222    29.38918    
H           134.24      20.45       36.41       
H           148.34      22.05       31.4        
S           134.58      22.34       33.44       
C           134.53      20.96       35.54       
C           133.68      21.58       34.69       
C           152.95      19.2        31.52       
C           152.43      20.5        31.45       
C           151.9       18.33       31.72       
N           153.15      21.64       31.32       
N           150.74      22.08       31.62       
S           152.1       22.86       31.23       
H           149.83      17.78       32.06       
H           152.08      17.26       31.85       
C           150.49      18.63       31.92       
C           151.03      20.78       31.66       
C           149.99      19.86       31.94       
C           167.08      10.82       28.73       
C           166.19      10.57       29.69       
S           166.8       12.55       28.28       
C           161.1       13.74       30.89       
C           162.09      14.44       30.14       
C           161.74      15.65       29.56       
C           160.54      16.26       29.91       
C           159.65      15.57       30.78       
C           159.96      14.39       31.4        
C           159.94      17.54       29.41       
C           158.73      17.66       30.29       
C           158.53      16.47       31.02       
C           161.58      12.28       31.16       
C           163.05      12.31       30.67       
C           163.26      13.54       29.97       
C           157.8       18.65       30.18       
C           156.53      18.44       30.73       
C           156.38      17.27       31.55       
C           157.34      16.29       31.74       
C           164.06      11.32       30.7        
C           165.18      11.54       29.92       
C           165.32      12.65       29.08       
C           164.36      13.75       29.15       
C           160.99      18.69       29.6        
C           159.42      17.49       27.95       
C           161.42      12.13       32.68       
C           160.84      11.11       30.38       
H           159.3       13.96       32.15       
H           162.34      16.06       28.75       
H           164.0       10.4        31.15       
H           164.56      14.67       28.54       
H           157.91      19.58       29.53       
H           157.16      15.44       32.38       
H           161.9       18.39       29.1        
H           160.64      19.59       29.17       
H           161.15732   18.94795    30.64574    
H           160.33      17.69       27.37       
H           158.6       18.2        27.73       
H           158.96751   16.53703    27.67576    
H           160.32      10.58       31.18       
H           161.62      10.45       29.9        
H           160.18715   11.4861     29.59232    
H           161.61      11.02       32.94       
H           160.37      12.44       33.01       
H           162.10659   12.75288    33.25334    
H           155.2       20.23       30.23       
H           166.21      9.57        30.12       
S           154.69      17.16       32.17       
C           155.34      19.29       30.79       
C           154.31      18.7        31.43       
C           171.04      9.13        27.91       
C           170.38      10.04       26.98       
C           170.34      8.89        29.0        
N           170.95      10.46       25.77       
N           168.56      11.18       26.1        
S           169.73      11.19       24.93       
H           168.62      9.23        30.26       
H           170.78      8.2         29.66       
C           169.01      9.42        29.26       
C           169.02      10.54       27.19       
C           168.29      10.22       28.37       
H           -11.13      25.29       30.59       
H           171.9       8.59        27.56       
