612

C           29.59       71.07       102.71      
C           30.68       71.81       103.0       
S           29.06       70.28       104.21      
C           33.6        71.59       108.4       
C           32.34       70.91       108.4       
C           31.72       70.43       109.57      
C           32.44       70.44       110.77      
C           33.73       71.09       110.71      
C           34.31       71.66       109.58      
C           32.01       70.15       112.19      
C           33.15       70.79       112.99      
C           34.2        71.19       112.12      
C           33.91       72.37       107.11      
C           32.68       71.98       106.27      
C           31.79       71.18       107.05      
C           33.34       70.88       114.37      
C           34.46       71.58       114.82      
C           35.46       72.06       113.97      
C           35.34       71.95       112.57      
C           32.32       72.3        104.94      
C           31.22       71.69       104.35      
C           30.41       70.82       105.14      
C           30.6        70.69       106.49      
C           30.65       70.78       112.5       
C           32.05       68.61       112.59      
C           33.97       73.91       107.27      
C           35.21       71.9        106.42      
H           35.25       72.22       109.66      
H           30.72       69.97       109.47      
H           32.96       72.97       104.33      
H           29.89       70.18       107.16      
H           32.54       70.67       115.06      
H           36.03       72.43       111.92      
H           29.7        70.44       111.94      
H           30.4        70.56       113.58      
H           30.61441    71.86186    112.37189   
H           33.07       68.35       112.71      
H           31.48       68.51       113.52      
H           31.62324    68.01965    111.77916   
H           36.05       72.56       106.7       
H           35.17       71.88       105.29      
H           35.42377    70.83854    106.54531   
H           34.81       74.11       107.97      
H           34.29       74.39       106.34      
H           33.03227    74.38586    107.55692   
H           33.99       71.83       116.94      
H           31.1        72.34       102.2       
S           36.72       73.02       114.83      
C           34.69       72.06       116.14      
C           35.87       72.79       116.36      
C           27.34       70.45       98.88       
C           27.96       71.71       99.24       
C           27.5        69.54       99.9        
N           28.1        72.76       98.41       
N           29.27       73.09       100.57      
S           28.97       73.91       99.18       
H           28.27       68.94       101.8       
H           27.11       68.53       99.8        
C           28.06       69.81       101.2       
C           28.57       71.95       100.49      
C           28.69       71.01       101.54      
C           19.55       64.58       85.37       
C           20.48       63.87       86.05       
S           19.32       66.23       86.05       
C           23.43       66.15       91.01       
C           22.62       67.06       90.31       
C           22.46       68.3        90.81       
C           23.16       68.74       91.94       
C           24.05       67.83       92.49       
C           24.18       66.55       92.08       
C           23.26       70.08       92.61       
C           24.53       69.83       93.54       
C           24.8        68.43       93.57       
C           23.29       64.74       90.36       
C           22.47       65.01       89.09       
C           22.05       66.36       89.14       
C           24.97       70.62       94.49       
C           25.63       70.14       95.62       
C           25.88       68.75       95.62       
C           25.57       67.93       94.6        
C           22.09       64.18       88.05       
C           21.12       64.64       87.15       
C           20.63       65.97       87.21       
C           21.14       66.87       88.2        
C           23.55       71.29       91.67       
C           21.9        70.36       93.31       
C           24.76       64.23       90.13       
C           22.54       63.76       91.3        
H           24.83       65.9        92.66       
H           21.84       69.01       90.34       
H           22.43       63.12       88.01       
H           20.83       67.86       88.25       
H           24.82       71.7        94.39       
H           25.66       66.85       94.77       
H           23.34       72.29       92.06       
H           22.81       71.2        90.92       
H           24.55725    71.1958     91.2642     
H           21.19       70.8        92.53       
H           21.92       71.1        94.16       
H           21.42723    69.48308    93.75227    
H           23.12       63.6        92.23       
H           22.43       62.82       90.87       
H           21.52019    64.08634    91.50396    
H           25.43       64.06       90.99       
H           24.57       63.35       89.53       
H           25.33279    64.89941    89.4882     
H           26.01       72.02       96.82       
H           20.72       62.87       85.9        
S           26.74       68.38       97.11       
C           26.1        70.9        96.7        
C           26.78       70.1        97.61       
C           16.79       62.77       82.53       
C           17.09       64.18       82.5        
C           17.37       62.09       83.57       
N           16.51       65.04       81.63       
N           18.03       66.13       83.23       
S           17.25       66.49       81.89       
H           18.73       62.11       85.15       
H           17.12       61.06       83.7        
C           18.26       62.72       84.44       
C           18.0        64.83       83.44       
C           18.64       64.03       84.45       
C           6.19        53.68       73.72       
C           6.94        53.13       74.64       
S           5.82        55.32       74.15       
C           10.52       56.34       78.4        
C           9.46        57.05       77.66       
C           9.34        58.38       77.89       
C           10.38       59.02       78.54       
C           11.47       58.3        79.02       
C           11.51       56.94       79.13       
C           10.59       60.51       78.54       
C           12.02       60.57       79.14       
C           12.52       59.29       79.45       
C           10.35       54.88       78.04       
C           9.19        54.87       77.04       
C           8.61        56.14       76.92       
C           12.71       61.7        79.54       
C           13.9        61.57       80.37       
C           14.39       60.3        80.51       
C           13.74       59.14       80.09       
C           8.6         53.78       76.43       
C           7.57        54.08       75.6        
C           7.06        55.35       75.38       
C           7.53        56.42       76.13       
C           10.68       61.01       77.09       
C           9.52        61.25       79.38       
C           11.51       54.2        77.28       
C           10.12       54.05       79.37       
H           12.36       56.41       79.56       
H           8.5         58.93       77.47       
H           9.07        52.78       76.6        
H           7.14        57.44       75.95       
H           12.45       62.67       79.14       
H           14.14       58.16       80.33       
H           9.94        60.63       76.5        
H           11.58       60.51       76.68       
H           10.83007    62.08193    76.96137    
H           8.55        61.19       78.93       
H           9.65        62.33       79.47       
H           9.57637     60.98931    80.43686    
H           9.73        53.07       79.06       
H           9.46        54.5        80.09       
H           11.03415    53.81615    79.91566    
H           12.51       54.21       77.81       
H           11.29       53.12       77.17       
H           11.69155    54.60666    76.28513    
H           14.37       63.64       80.93       
H           7.29        52.18       74.48       
S           15.86       60.34       81.5        
C           14.67       62.57       80.97       
C           15.74       62.14       81.73       
C           4.86        52.02       69.77       
C           6.15        51.82       70.3        
C           4.06        52.83       70.56       
N           7.06        51.07       69.72       
N           7.95        52.15       71.83       
S           8.43        51.26       70.58       
H           3.87        54.2        72.32       
H           3.03        53.05       70.31       
C           4.55        53.43       71.83       
C           6.63        52.42       71.57       
C           5.74        53.17       72.4        
C           -2.83       44.38       57.37       
C           -3.33       45.61       57.78       
S           -1.32       43.94       58.05       
C           -0.1        48.94       61.77       
C           0.5         47.69       61.42       
C           1.76        47.22       61.93       
C           2.28        47.89       63.03       
C           1.65        49.11       63.47       
C           0.47        49.62       62.81       
C           3.25        47.36       64.04       
C           3.35        48.63       64.93       
C           2.38        49.62       64.59       
C           -1.31       49.36       60.98       
C           -1.46       48.01       60.23       
C           -0.43       47.17       60.43       
C           4.11        48.76       66.04       
C           4.02        49.89       66.79       
C           3.04        50.88       66.5        
C           2.29        50.81       65.35       
C           -2.46       47.61       59.3        
C           -2.38       46.3        58.68       
C           -1.29       45.47       58.96       
C           -0.31       45.93       59.79       
C           2.59        46.23       64.84       
C           4.62        47.11       63.39       
C           -2.45       49.6        62.0        
C           -1.07       50.56       59.98       
H           -0.02       50.5        63.15       
H           2.16        46.27       61.67       
H           -3.24       48.32       59.11       
H           0.53        45.31       59.86       
H           4.83        48.04       66.36       
H           1.55        51.58       65.19       
H           2.24        45.43       64.2        
H           1.7         46.55       65.35       
H           3.18622     45.72717    65.60143    
H           4.6         46.13       62.9        
H           5.3         47.0        64.12       
H           4.81697     47.81346    62.58102    
H           -1.0        51.46       60.58       
H           -1.9        50.73       59.3        
H           -0.18846    50.34482    59.37611    
H           -3.32       50.0        61.42       
H           -2.2        50.26       62.83       
H           -2.83541    48.71005    62.49753    
H           5.42        49.49       68.4        
H           -4.25       46.04       57.4        
S           3.21        52.25       67.63       
C           4.69        50.18       68.0        
C           4.41        51.39       68.53       
C           -4.76       41.2        55.08       
C           -3.39       41.41       54.96       
C           -5.47       42.03       55.84       
N           -2.51       40.82       54.14       
N           -1.49       42.47       55.44       
S           -1.03       41.49       54.19       
H           -5.43       43.53       57.38       
H           -6.5        41.82       56.02       
C           -4.85       43.06       56.64       
C           -2.83       42.48       55.65       
C           -3.56       43.42       56.51       
C           -14.89      29.11       51.85       
C           -15.25      30.43       51.87       
S           -13.23      28.89       51.34       
C           -11.33      34.88       51.24       
C           -10.73      33.59       51.19       
C           -9.32       33.47       51.35       
C           -8.58       34.58       51.57       
C           -9.2        35.8        51.66       
C           -10.54      35.99       51.34       
C           -7.21       34.66       51.97       
C           -7.1        36.12       52.32       
C           -8.31       36.8        52.21       
C           -12.84      34.83       50.88       
C           -13.03      33.29       50.99       
C           -11.78      32.6        51.12       
C           -6.0        36.74       52.86       
C           -6.09       38.07       53.22       
C           -7.35       38.8        53.07       
C           -8.45       38.18       52.47       
C           -14.18      32.66       51.2        
C           -14.21      31.25       51.31       
C           -12.95      30.57       51.28       
C           -11.71      31.24       51.13       
C           -6.92       33.82       53.23       
C           -6.19       34.46       50.84       
C           -13.61      35.62       51.88       
C           -12.99      35.39       49.42       
H           -11.0       36.93       51.38       
H           -8.87       32.48       51.43       
H           -15.15      33.17       51.23       
H           -10.8       30.76       51.02       
H           -5.05       36.23       52.94       
H           -9.4        38.69       52.55       
H           -5.79       33.89       53.42       
H           -7.09       32.78       53.14       
H           -7.36777    34.2017     54.14756    
H           -6.05       33.4        50.77       
H           -5.15       34.7        51.05       
H           -6.56208    34.76642    49.86237    
H           -12.93      36.48       49.45       
H           -12.13      34.96       48.88       
H           -13.91494   35.02714    48.97176    
H           -13.03      36.54       51.82       
H           -14.6       35.8        51.72       
H           -13.44914   35.23534    52.88711    
H           -4.02       38.49       53.94       
H           -16.18      30.81       52.31       
S           -7.11       40.41       53.69       
C           -5.06       38.87       53.81       
C           -5.46       40.1        54.24       
C           -16.68      25.44       53.47       
C           -16.92      26.76       54.09       
C           -15.85      25.53       52.36       
N           -17.64      26.99       55.21       
N           -16.73      29.15       54.2        
S           -17.54      28.56       55.51       
H           -14.72      26.65       50.97       
H           -15.66      24.68       51.75       
C           -15.3       26.75       51.87       
C           -16.36      28.0        53.55       
C           -15.51      27.96       52.46       
C           -22.98      10.07       55.11       
C           -22.01      10.41       54.24       
S           -23.31      11.47       56.14       
C           -19.62      16.02       53.71       
C           -20.51      15.85       54.8        
C           -20.79      16.84       55.71       
C           -20.29      18.15       55.41       
C           -19.48      18.32       54.31       
C           -19.11      17.26       53.48       
C           -20.34      19.41       56.28       
C           -19.75      20.42       55.31       
C           -19.01      19.71       54.37       
C           -19.36      14.63       53.04       
C           -20.38      13.76       53.69       
C           -21.04      14.45       54.72       
C           -19.62      21.79       55.48       
C           -18.64      22.47       54.76       
C           -17.85      21.72       53.8        
C           -17.98      20.32       53.64       
C           -20.69      12.46       53.38       
C           -21.59      11.81       54.21       
C           -22.18      12.54       55.32       
C           -21.94      13.86       55.56       
C           -21.8       19.78       56.53       
C           -19.34      19.39       57.48       
C           -19.49      14.6        51.49       
C           -17.97      14.06       53.34       
H           -18.35      17.37       52.71       
H           -21.41      16.76       56.58       
H           -20.28      11.98       52.51       
H           -22.47      14.51       56.26       
H           -20.28      22.35       56.09       
H           -17.36      19.81       52.85       
H           -22.16      18.96       57.14       
H           -21.91      20.6        57.22       
H           -22.46504   19.8083     55.66686    
H           -18.34      19.59       57.07       
H           -19.66      20.24       58.03       
H           -19.28304   18.49993    58.10661    
H           -17.49      13.59       52.53       
H           -17.99      13.23       54.09       
H           -17.31573   14.78538    53.82359    
H           -18.66      15.14       51.1        
H           -19.35      13.6        51.2        
H           -20.46272   14.97192    51.16814    
H           -18.93      24.65       55.24       
H           -21.6       9.64        53.52       
S           -16.77      22.77       52.97       
C           -18.42      23.9        54.72       
C           -17.39      24.19       53.81       
C           -25.1       6.37        56.55       
C           -23.97      6.25        55.76       
C           -25.54      7.64        56.7        
N           -23.4       5.09        55.39       
N           -22.19      7.07        54.63       
S           -22.23      5.45        54.37       
H           -25.11      9.72        56.52       
H           -26.45      7.92        57.17       
C           -24.8       8.79        56.21       
C           -23.24      7.43        55.28       
C           -23.6       8.8         55.56       
C           -32.31      -4.62       67.13       
C           -31.92      -3.38       67.49       
S           -31.81      -5.02       65.48       
C           -29.59      0.54        63.38       
C           -29.53      -0.82       62.97       
C           -28.9       -1.06       61.7        
C           -28.37      0.03        60.97       
C           -28.53      1.37        61.35       
C           -29.26      1.64        62.53       
C           -27.55      -0.14       59.67       
C           -27.22      1.32        59.34       
C           -27.91      2.19        60.26       
C           -29.93      0.64        64.9        
C           -30.44      -0.77       65.11       
C           -30.17      -1.63       63.97       
C           -26.56      1.88        58.31       
C           -26.52      3.24        58.15       
C           -27.2       4.06        59.09       
C           -27.96      3.57        60.17       
C           -31.03      -1.27       66.23       
C           -31.28      -2.64       66.34       
C           -31.14      -3.39       65.17       
C           -30.43      -3.03       64.06       
C           -26.27      -1.08       59.93       
C           -28.44      -0.51       58.45       
C           -28.72      1.12        65.69       
C           -31.05      1.73        65.04       
H           -29.42      2.63        62.9        
H           -28.93      -2.08       61.29       
H           -31.44      -0.56       67.02       
H           -30.18      -3.66       63.28       
H           -26.0       1.29        57.6        
H           -28.38      4.21        60.89       
H           -26.43      -2.04       60.37       
H           -25.65      -1.37       59.08       
H           -25.56361   -0.62121    60.62183    
H           -29.35      0.06        58.56       
H           -28.04      -0.11       57.46       
H           -28.7573    -1.55255    58.47266    
H           -30.59      2.7         64.85       
H           -31.6       1.62        66.04       
H           -31.87943   1.46735     64.38337    
H           -28.89      2.16        66.02       
H           -27.89      1.05        64.99       
H           -28.40745   0.48779     66.5211     
H           -25.24      3.46        56.23       
H           -32.2       -3.0        68.48       
S           -26.84      5.74        58.66       
C           -25.81      3.96        57.1        
C           -25.9       5.35        57.2        
C           -34.51      -7.64       69.27       
C           -33.51      -6.85       70.01       
C           -34.5       -7.43       67.96       
N           -33.39      -6.9        71.36       
N           -32.08      -5.08       70.42       
S           -32.32      -5.84       71.93       
H           -33.96      -6.25       66.29       
H           -35.22      -7.95       67.39       
C           -33.7       -6.41       67.36       
C           -32.72      -5.79       69.42       
C           -32.84      -5.62       67.99       
C           -47.17      -8.15       78.9        
C           -47.38      -8.2        77.57       
S           -45.52      -8.47       79.32       
C           -42.9       -9.26       73.62       
C           -42.57      -9.6        74.91       
C           -41.35      -10.17      75.24       
C           -40.33      -10.18      74.29       
C           -40.63      -9.61       72.99       
C           -41.93      -9.17       72.63       
C           -38.88      -10.6       74.45       
C           -38.36      -10.11      73.11       
C           -39.38      -9.43       72.37       
C           -44.35      -8.99       73.4        
C           -44.84      -9.05       74.84       
C           -43.78      -9.31       75.72       
C           -37.06      -10.1       72.71       
C           -36.75      -9.35       71.6        
C           -37.76      -8.77       70.8        
C           -39.09      -8.77       71.21       
C           -46.07      -8.63       75.4        
C           -46.22      -8.55       76.78       
C           -45.12      -8.81       77.65       
C           -43.91      -9.28       77.19       
C           -38.21      -9.95       75.69       
C           -38.67      -12.16      74.55       
C           -44.58      -7.55       72.88       
C           -45.0       -10.1       72.52       
H           -42.13      -8.77       71.69       
H           -41.15      -10.52      76.25       
H           -46.95      -8.51       74.82       
H           -43.05      -9.41       77.82       
H           -36.36      -10.72      73.25       
H           -39.8       -8.28       70.6        
H           -37.16      -9.96       75.57       
H           -38.45      -10.5       76.6        
H           -38.43862   -8.89003    75.80085    
H           -39.13      -12.51      75.45       
H           -37.63      -12.48      74.6        
H           -39.18512   -12.66061   73.73016    
H           -44.58      -9.88       71.55       
H           -44.64      -11.02      72.94       
H           -46.08788   -10.15764   72.55602    
H           -45.62      -7.3        72.69       
H           -44.06      -7.45       71.92       
H           -44.21197   -6.79921    73.57926    
H           -34.55      -9.38       71.58       
H           -48.29      -7.84       77.08       
S           -37.13      -8.1        69.33       
C           -35.5       -9.17       71.0        
C           -35.5       -8.42       69.9        
C           -48.89      -5.44       81.81       
C           -48.48      -6.78       82.22       
C           -48.79      -5.2        80.46       
N           -48.42      -7.32       83.51       
N           -47.64      -9.01       81.75       
S           -47.89      -8.89       83.39       
H           -48.45      -5.96       78.55       
H           -48.98      -4.22       80.11       
C           -48.35      -6.21       79.53       
C           -47.98      -7.77       81.21       
C           -47.91      -7.4        79.83       
C           -50.55      7.47        92.32       
C           -51.47      7.28        91.29       
S           -49.57      6.03        92.45       
C           -51.46      2.33        87.65       
C           -50.63      2.33        88.71       
C           -49.79      1.19        88.91       
C           -49.77      0.13        88.01       
C           -50.58      0.25        86.89       
C           -51.36      1.42        86.66       
C           -49.23      -1.35       88.15       
C           -49.4       -1.76       86.67       
C           -50.27      -0.9        85.98       
C           -52.23      3.66        87.56       
C           -51.7       4.39        88.81       
C           -50.77      3.56        89.47       
C           -48.91      -2.96       86.14       
C           -49.2       -3.28       84.83       
C           -50.02      -2.38       84.1        
C           -50.6       -1.26       84.7        
C           -51.98      5.66        89.3        
C           -51.27      6.14        90.46       
C           -50.33      5.28        91.04       
C           -50.07      3.98        90.61       
C           -47.71      -1.5        88.52       
C           -50.19      -2.19       89.02       
C           -51.91      4.51        86.3        
C           -53.7       3.34        87.65       
H           -52.05      1.4         85.82       
H           -49.13      1.27        89.76       
H           -52.7       6.27        88.81       
H           -49.3       3.47        91.22       
H           -48.23      -3.59       86.72       
H           -51.28      -0.58       84.15       
H           -47.46      -1.33       89.52       
H           -47.39      -2.52       88.38       
H           -47.11479   -0.76688    87.9756     
H           -50.98      -2.4        88.38       
H           -49.81      -3.15       89.37       
H           -50.58742   -1.7035     89.91077    
H           -54.13      3.03        86.69       
H           -54.35      4.02        88.21       
H           -53.95795   2.49449     88.28771    
H           -52.14      4.05        85.42       
H           -52.6       5.37        86.29       
H           -50.90774   4.93744     86.32948    
H           -47.96      -5.12       84.45       
H           -52.23      7.99        91.16       
S           -50.24      -3.07       82.54       
C           -48.67      -4.41       84.1        
C           -49.19      -4.44       82.82       
C           -50.07      10.45       95.64       
C           -51.43      10.15       95.18       
C           -49.06      9.87        94.89       
N           -52.51      10.62       95.76       
N           -52.84      9.04        93.83       
S           -53.71      9.85        94.93       
H           -48.35      8.4         93.48       
H           -48.08      10.1        95.2        
C           -49.26      8.88        93.87       
C           -51.55      9.21        94.09       
C           -50.51      8.47        93.42       
C           -45.11      21.84       106.7       
C           -44.35      20.8        106.22      
S           -46.79      21.54       106.27      
C           -46.33      16.32       102.72      
C           -47.3       17.23       103.13      
C           -48.63      17.03       102.82      
C           -48.92      16.01       101.94      
C           -47.9       15.18       101.41      
C           -46.64      15.22       101.91      
C           -50.23      15.59       101.3       
C           -49.77      14.7        100.16      
C           -48.42      14.34       100.29      
C           -44.95      16.7        103.26      
C           -45.35      17.98       104.09      
C           -46.7       18.26       103.97      
C           -50.6       14.04       99.25       
C           -50.02      13.1        98.38       
C           -48.67      12.81       98.51       
C           -47.86      13.43       99.49       
C           -44.51      18.67       104.95      
C           -45.04      19.76       105.6       
C           -46.43      20.07       105.39      
C           -47.28      19.3        104.63      
C           -51.25      14.89       102.22      
C           -50.92      16.78       100.61      
C           -44.27      15.56       104.06      
C           -44.2       17.02       101.96      
H           -45.93      14.56       101.48      
H           -49.44      17.65       103.22      
H           -43.52      18.33       105.13      
H           -48.3       19.53       104.41      
H           -51.58      14.24       99.16       
H           -46.75      13.16       99.63       
H           -51.94      15.54       102.73      
H           -51.91      14.31       101.49      
H           -50.81727   14.28857    103.01946   
H           -51.06      17.53       101.37      
H           -51.87      16.53       100.22      
H           -50.28171   17.29356    99.89101    
H           -44.14      16.08       101.43      
H           -44.86      17.72       101.36      
H           -43.20883   17.45497    102.08835   
H           -43.38      15.97       104.52      
H           -43.82      14.81       103.37      
H           -45.01746   15.12159    104.72121   
H           -51.64      12.5        96.97       
H           -43.32      20.85       106.27      
S           -48.16      11.52       97.36       
C           -50.65      12.29       97.37       
C           -49.79      11.4        96.69       
C           -44.27      25.52       109.07      
C           -43.22      24.75       108.58      
C           -45.46      24.97       108.78      
N           -41.98      25.08       108.71      
N           -42.33      23.06       107.24      
S           -41.14      23.95       107.95      
H           -46.78      23.59       107.77      
H           -46.4       25.53       109.11      
C           -45.69      23.82       107.94      
C           -43.42      23.57       107.7       
C           -44.74      23.07       107.41      
H           36.38       72.89       117.27      
H           -44.14      26.49       109.51      
