612

C           51.74       73.84       45.75       
C           52.83       73.06       45.79       
S           52.09       75.14       44.57       
C           58.37       74.16       43.43       
C           57.36       75.07       42.96       
C           57.57       75.96       41.91       
C           58.82       76.06       41.37       
C           59.8        75.08       41.75       
C           59.63       74.18       42.83       
C           59.25       76.87       40.09       
C           60.7        76.36       40.07       
C           60.92       75.2        40.92       
C           57.82       73.18       44.42       
C           56.28       73.49       44.26       
C           56.04       74.67       43.52       
C           61.65       76.9        39.27       
C           62.89       76.26       39.36       
C           63.16       75.09       40.19       
C           62.14       74.53       40.91       
C           55.29       72.87       44.97       
C           54.03       73.43       45.05       
C           53.77       74.51       44.26       
C           54.72       75.16       43.46       
C           58.52       76.46       38.82       
C           59.34       78.33       40.39       
C           58.23       71.68       44.0        
C           58.17       73.43       45.9        
H           60.35       73.57       43.3        
H           56.75       76.55       41.57       
H           55.54       71.98       45.48       
H           54.44       76.06       42.9        
H           61.44       77.74       38.59       
H           62.34       73.69       41.59       
H           57.4        76.25       39.04       
H           58.88       75.51       38.47       
H           58.69487    77.09654    37.95263    
H           60.11       78.5        41.1        
H           59.71       78.84       39.54       
H           58.40168    78.81382    40.66123    
H           58.38       72.42       46.31       
H           57.28       73.83       46.43       
H           58.97257    74.14024    46.09887    
H           59.28       71.39       44.21       
H           57.61       71.03       44.51       
H           58.12351    71.41022    42.9493     
H           64.08       77.51       37.91       
H           52.83       72.2        46.43       
S           64.91       74.74       40.13       
C           64.11       76.69       38.62       
C           65.27       75.97       38.94       
C           47.75       73.56       47.59       
C           48.58       72.34       47.52       
C           48.29       74.72       47.06       
N           48.21       71.17       48.06       
N           50.39       71.12       46.93       
S           49.36       70.09       47.72       
H           49.9        75.7        45.98       
H           47.71       75.65       47.01       
C           49.58       74.72       46.39       
C           49.86       72.33       46.86       
C           50.42       73.57       46.31       
C           31.82       74.29       51.77       
C           32.34       73.28       51.07       
S           33.07       75.27       52.57       
C           38.42       72.54       50.56       
C           38.0        73.76       51.11       
C           38.84       74.86       51.33       
C           40.11       74.67       50.94       
C           40.59       73.48       50.38       
C           39.73       72.37       50.11       
C           41.17       75.74       50.76       
C           42.34       74.98       50.17       
C           42.03       73.6        50.1        
C           37.22       71.65       50.16       
C           36.05       72.51       50.63       
C           36.55       73.66       51.35       
C           43.45       75.39       49.64       
C           44.35       74.44       49.17       
C           44.13       73.06       49.16       
C           42.84       72.64       49.55       
C           34.69       72.27       50.46       
C           33.78       73.16       51.08       
C           34.28       74.25       51.81       
C           35.67       74.53       51.92       
C           40.69       76.8        49.78       
C           41.55       76.32       52.18       
C           37.28       71.48       48.58       
C           37.12       70.23       50.78       
H           40.09       71.44       49.68       
H           38.39       75.81       51.81       
H           34.3        71.38       49.95       
H           36.1        75.41       52.34       
H           43.7        76.41       49.78       
H           42.55       71.62       49.45       
H           39.8        77.37       50.11       
H           41.5        77.53       49.77       
H           40.62663    76.5113     48.73084    
H           40.64       76.68       52.6        
H           42.21       77.22       52.12       
H           42.04762    75.60602    52.83628    
H           37.52       69.55       50.05       
H           36.08       70.04       50.88       
H           37.64849    70.06852    51.71953    
H           38.27       71.23       48.32       
H           36.6        70.73       48.25       
H           37.06047    72.42186    48.0772     
H           46.06       75.71       48.39       
H           31.71       72.68       50.51       
S           45.47       72.22       48.43       
C           45.66       74.72       48.61       
C           46.45       73.64       48.31       
C           27.9        76.09       52.42       
C           28.33       75.54       51.15       
C           28.86       76.01       53.41       
N           27.53       75.53       50.05       
N           29.68       74.29       49.74       
S           28.32       74.66       48.87       
H           30.87       75.33       53.96       
H           28.7        76.42       54.4        
C           30.16       75.38       53.13       
C           29.58       74.84       51.0        
C           30.55       74.86       51.96       
C           12.88       82.18       55.59       
C           13.77       82.13       56.56       
S           13.63       82.06       54.02       
C           19.53       80.47       55.65       
C           18.72       80.74       54.55       
C           19.31       80.61       53.28       
C           20.61       80.04       53.12       
C           21.36       79.64       54.23       
C           20.77       79.87       55.54       
C           21.49       79.86       51.9        
C           22.77       79.22       52.41       
C           22.71       79.13       53.8        
C           18.8        80.93       56.87       
C           17.46       81.37       56.34       
C           17.45       81.24       54.95       
C           23.79       78.7        51.61       
C           24.85       78.04       52.35       
C           24.83       78.04       53.74       
C           23.83       78.59       54.5        
C           16.28       81.58       56.99       
C           15.08       81.76       56.19       
C           15.14       81.78       54.76       
C           16.43       81.68       54.17       
C           20.74       78.95       50.91       
C           21.86       81.26       51.29       
C           18.66       79.71       57.79       
C           19.62       82.04       57.64       
H           21.37       79.7        56.46       
H           18.73       80.97       52.43       
H           16.33       81.78       58.09       
H           16.57       81.71       53.08       
H           23.8        78.85       50.55       
H           23.73       78.46       55.54       
H           21.06       79.29       50.02       
H           19.66       79.21       50.79       
H           20.91407    77.88381    51.05506    
H           21.05       81.63       50.72       
H           22.56       81.24       50.45       
H           22.27537    81.97616    51.999      
H           20.49       81.61       58.18       
H           19.08       82.55       58.4        
H           20.0679     82.80283    57.00315    
H           19.63       79.31       58.16       
H           18.05       79.94       58.64       
H           18.25386    78.80668    57.33484    
H           26.14       77.38       50.63       
H           13.55       82.13       57.62       
S           26.14       77.04       54.31       
C           25.97       77.41       51.75       
C           26.74       76.9        52.64       
C           8.45        81.6        55.76       
C           9.14        82.11       56.89       
C           9.24        81.37       54.68       
N           8.66        82.45       58.05       
N           11.0        83.03       57.88       
S           9.85        83.07       59.02       
H           11.17       81.26       53.67       
H           8.8         80.83       53.8        
C           10.65       81.57       54.61       
C           10.55       82.42       56.8        
C           11.37       82.16       55.66       
C           -6.21       73.94       56.26       
C           -5.15       73.82       57.02       
S           -5.7        75.03       54.91       
C           0.11        76.68       56.58       
C           -0.7        76.81       55.44       
C           -0.31       77.71       54.42       
C           0.92        78.38       54.5        
C           1.76        78.15       55.64       
C           1.32        77.39       56.7        
C           1.5         79.41       53.53       
C           2.93        79.65       54.24       
C           2.97        78.86       55.46       
C           -0.43       75.62       57.55       
C           -1.71       75.13       56.84       
C           -1.83       75.91       55.61       
C           3.97        80.53       53.88       
C           5.05        80.53       54.78       
C           5.13        79.67       55.95       
C           4.07        78.8        56.28       
C           -2.82       74.44       57.35       
C           -3.99       74.41       56.62       
C           -4.07       75.1        55.42       
C           -3.02       75.85       54.88       
C           1.74        78.78       52.12       
C           0.7         80.71       53.39       
C           0.54        74.41       57.65       
C           -0.82       76.33       58.85       
H           1.97        77.32       57.59       
H           -1.02       77.87       53.57       
H           -2.85       74.04       58.37       
H           -3.19       76.44       54.02       
H           3.9         81.1        53.0        
H           4.14        78.04       57.09       
H           0.79        78.38       51.74       
H           2.11        79.55       51.47       
H           2.5329      78.03241    52.14265    
H           0.45        81.04       54.35       
H           1.19        81.5        52.89       
H           -0.28297    80.54617    52.94838    
H           -0.08       77.13       58.9        
H           -1.83       76.72       58.71       
H           -0.7987     75.76202    59.78008    
H           1.52        74.61       58.16       
H           0.07        73.74       58.36       
H           0.69493     73.93044    56.6835     
H           6.45        81.95       53.75       
H           -5.2        73.21       57.9        
S           6.69        79.91       56.81       
C           6.26        81.3        54.63       
C           7.06        81.25       55.72       
C           -10.43      72.4        56.37       
C           -9.49       72.05       57.41       
C           -9.9        73.32       55.45       
N           -9.7        71.18       58.43       
N           -7.42       72.09       58.42       
S           -8.25       70.95       59.22       
H           -8.19       74.25       54.52       
H           -10.49      73.58       54.59       
C           -8.51       73.77       55.41       
C           -8.14       72.6        57.41       
C           -7.61       73.47       56.42       
C           -23.57      62.97       52.92       
C           -22.72      62.8        53.97       
S           -23.24      64.5        52.14       
C           -18.12      66.5        55.48       
C           -19.13      67.11       54.64       
C           -18.97      68.36       54.07       
C           -17.85      69.05       54.42       
C           -16.88      68.49       55.27       
C           -17.05      67.26       55.92       
C           -17.32      70.31       53.79       
C           -16.04      70.5        54.6        
C           -15.85      69.43       55.46       
C           -18.67      65.15       56.01       
C           -19.76      64.9        55.0        
C           -20.06      66.01       54.23       
C           -15.09      71.46       54.51       
C           -14.0       71.33       55.35       
C           -13.83      70.24       56.22       
C           -14.77      69.24       56.28       
C           -20.59      63.78       54.99       
C           -21.69      63.81       54.13       
C           -21.93      64.86       53.23       
C           -21.11      65.98       53.29       
C           -17.01      70.14       52.28       
C           -18.12      71.59       54.11       
C           -17.52      64.17       55.81       
C           -19.14      65.13       57.49       
H           -16.25      66.89       56.54       
H           -19.77      68.75       53.39       
H           -20.38      62.94       55.61       
H           -21.23      66.77       52.64       
H           -15.18      72.26       53.79       
H           -14.63      68.35       56.9        
H           -17.77      69.62       51.76       
H           -17.11      71.12       51.76       
H           -16.07438   69.64829    52.01366    
H           -18.23      71.73       55.17       
H           -17.77      72.53       53.74       
H           -19.14605   71.50078    53.75311    
H           -18.28      64.94       58.12       
H           -19.84      64.25       57.58       
H           -19.74482   65.99098    57.77462    
H           -16.74      64.22       56.53       
H           -17.99      63.23       56.0        
H           -17.07694   64.24146    54.81668    
H           -12.77      72.99       54.58       
H           -22.62      61.83       54.52       
S           -12.22      70.39       56.93       
C           -12.84      72.18       55.31       
C           -11.84      71.94       56.31       
C           -25.55      60.36       49.94       
C           -24.58      59.79       50.83       
C           -25.94      61.62       50.24       
N           -24.0       58.6        50.81       
N           -22.94      59.96       52.56       
S           -22.95      58.42       52.03       
H           -25.52      63.42       51.18       
H           -26.72      62.16       49.68       
C           -25.31      62.39       51.27       
C           -23.9       60.6        51.86       
C           -24.28      61.97       52.11       
C           -32.79      54.46       36.22       
C           -32.6       55.79       36.5        
S           -32.08      53.42       37.43       
C           -30.12      57.76       41.62       
C           -30.13      56.33       41.46       
C           -29.47      55.51       42.37       
C           -28.83      56.1        43.46       
C           -28.94      57.53       43.65       
C           -29.57      58.33       42.75       
C           -28.13      55.5        44.72       
C           -27.84      56.69       45.57       
C           -28.22      57.9        44.91       
C           -30.74      58.42       40.4        
C           -31.18      57.24       39.54       
C           -30.78      56.02       40.19       
C           -27.17      56.79       46.79       
C           -26.85      58.07       47.3        
C           -27.26      59.2        46.59       
C           -27.94      59.15       45.4        
C           -31.7       57.25       38.25       
C           -31.94      56.06       37.68       
C           -31.56      54.85       38.36       
C           -30.84      54.8        39.52       
C           -29.0       54.57       45.53       
C           -26.84      54.8        44.26       
C           -31.88      59.35       40.9        
C           -29.73      59.23       39.54       
H           -29.69      59.42       42.9        
H           -29.49      54.41       42.23       
H           -32.11      58.19       37.88       
H           -30.64      53.86       39.95       
H           -26.89      55.88       47.4        
H           -28.16      60.04       44.77       
H           -29.21      53.57       45.01       
H           -28.44      54.4        46.43       
H           -29.96021   54.98352    45.83839    
H           -26.25      55.5        43.79       
H           -26.22      54.48       45.1        
H           -27.07454   54.01361    43.54259    
H           -30.37      59.69       38.72       
H           -29.08      58.54       38.98       
H           -29.15716   60.04329    39.98554    
H           -31.66      59.9        41.86       
H           -32.11      60.12       40.11       
H           -32.78989   58.82805    41.19624    
H           -26.07      57.48       49.23       
H           -33.1       56.52       35.88       
S           -26.69      60.64       47.42       
C           -26.31      58.36       48.58       
C           -26.19      59.63       48.81       
C           -36.06      52.35       34.07       
C           -35.84      53.75       33.93       
C           -35.12      51.75       34.85       
N           -36.62      54.55       33.2        
N           -34.8       55.8        34.2        
S           -36.08      56.08       33.22       
H           -33.33      51.75       35.98       
H           -35.2       50.7        35.09       
C           -34.02      52.43       35.51       
C           -34.81      54.51       34.64       
C           -33.81      53.78       35.44       
C           -51.8       48.13       35.34       
C           -50.85      47.59       36.15       
S           -51.1       48.98       33.99       
C           -44.89      48.16       34.8        
C           -45.79      48.74       33.93       
C           -45.3       49.55       32.94       
C           -43.94      49.83       32.89       
C           -43.0       49.11       33.71       
C           -43.54      48.24       34.64       
C           -43.23      51.05       32.28       
C           -41.73      50.69       32.53       
C           -41.64      49.61       33.46       
C           -45.65      47.87       36.1        
C           -47.09      47.67       35.58       
C           -47.13      48.36       34.36       
C           -40.62      51.39       32.11       
C           -39.4       51.19       32.74       
C           -39.37      50.16       33.74       
C           -40.46      49.39       34.16       
C           -48.26      47.25       36.18       
C           -49.48      47.72       35.58       
C           -49.46      48.44       34.4        
C           -48.3       48.83       33.79       
C           -43.51      51.15       30.79       
C           -43.47      52.45       32.97       
C           -45.06      46.53       36.7        
C           -45.66      49.03       37.12       
H           -42.92      47.72       35.34       
H           -45.97      50.02       32.2        
H           -48.19      46.7        37.08       
H           -48.29      49.38       32.85       
H           -40.8       52.19       31.36       
H           -40.37      48.57       34.88       
H           -44.61      51.13       30.63       
H           -43.11      52.04       30.4        
H           -43.09188   50.29959    30.25141    
H           -42.97      52.56       33.93       
H           -42.93      53.17       32.35       
H           -44.49985   52.71265    33.21191    
H           -45.4       48.75       38.13       
H           -46.7       49.3        37.1        
H           -45.14069   49.94057    36.82122    
H           -44.01      46.69       36.94       
H           -45.49      46.32       37.73       
H           -45.26421   45.65684    36.08034    
H           -38.02      52.77       32.01       
H           -51.1       47.12       37.06       
S           -37.78      50.13       34.54       
C           -38.2       51.94       32.73       
C           -37.26      51.58       33.66       
C           -55.69      49.9        36.07       
C           -54.92      49.33       37.14       
C           -55.2       49.67       34.89       
N           -55.29      49.44       38.38       
N           -53.32      47.94       38.1        
S           -54.22      48.54       39.29       
H           -53.63      48.92       33.65       
H           -55.62      50.13       34.06       
C           -53.95      49.03       34.65       
C           -53.83      48.44       36.89       
C           -53.17      48.46       35.64       
C           -59.24      65.22       33.52       
C           -59.74      64.3        32.64       
S           -58.76      64.43       35.01       
C           -59.77      58.37       33.86       
C           -59.31      59.24       34.93       
C           -58.82      58.7        36.13       
C           -58.92      57.35       36.25       
C           -59.15      56.55       35.1        
C           -59.61      57.01       33.87       
C           -58.46      56.56       37.44       
C           -58.65      55.14       36.92       
C           -58.83      55.13       35.52       
C           -60.1       59.2        32.6        
C           -59.95      60.6        33.19       
C           -59.41      60.62       34.51       
C           -58.23      53.97       37.56       
C           -57.78      52.91       36.84       
C           -58.15      52.95       35.47       
C           -58.8       53.98       34.8        
C           -60.08      61.76       32.41       
C           -59.65      62.95       33.03       
C           -59.06      62.87       34.3        
C           -58.99      61.75       35.05       
C           -57.01      56.88       37.84       
C           -59.38      56.89       38.6        
C           -58.97      58.86       31.54       
C           -61.46      58.79       32.11       
H           -59.8       56.33       33.06       
H           -58.42      59.37       36.97       
H           -60.6       61.65       31.51       
H           -58.57      61.78       36.02       
H           -58.16      53.96       38.68       
H           -59.2       53.98       33.76       
H           -56.82      57.97       37.94       
H           -56.87      56.47       38.8        
H           -56.25222   56.61337    37.10327    
H           -58.9       57.69       39.12       
H           -59.33      56.04       39.26       
H           -60.41229   57.10232    38.32179    
H           -61.48      58.01       31.33       
H           -61.96      59.62       31.66       
H           -62.21426   58.65607    32.88541    
H           -58.66      57.76       31.61       
H           -59.37      59.05       30.54       
H           -58.07311   59.44836    31.73373    
H           -56.81      51.49       38.25       
H           -60.16      64.59       31.67       
S           -57.54      51.46       34.73       
C           -57.04      51.69       37.25       
C           -56.77      50.85       36.18       
C           -59.47      69.63       33.76       
C           -60.36      68.87       32.95       
C           -58.51      68.86       34.4        
N           -61.36      69.46       32.18       
N           -61.25      66.93       31.87       
S           -62.16      68.18       31.43       
H           -57.72      66.92       34.89       
H           -57.9       69.35       35.14       
C           -58.5       67.43       34.32       
C           -60.34      67.42       32.72       
C           -59.38      66.68       33.55       
C           -59.67      82.94       43.47       
C           -58.72      82.76       42.53       
S           -61.05      81.91       43.12       
C           -59.15      78.38       38.21       
C           -60.25      78.49       39.07       
C           -61.37      77.6        39.0        
C           -61.34      76.53       38.16       
C           -60.16      76.41       37.32       
C           -59.09      77.31       37.34       
C           -62.24      75.33       37.95       
C           -61.46      74.57       36.89       
C           -60.22      75.19       36.55       
C           -58.18      79.53       38.38       
C           -58.7       80.22       39.69       
C           -60.02      79.62       39.98       
C           -61.77      73.31       36.39       
C           -60.85      72.67       35.46       
C           -59.68      73.4        35.1        
C           -59.35      74.6        35.64       
C           -58.2       81.19       40.5        
C           -58.98      81.75       41.51       
C           -60.27      81.2        41.73       
C           -60.81      80.14       40.98       
C           -62.28      74.36       39.23       
C           -63.67      75.76       37.44       
C           -56.7       78.99       38.67       
C           -58.28      80.57       37.19       
H           -58.22      77.1        36.76       
H           -62.16      77.65       39.67       
H           -57.16      81.55       40.32       
H           -61.73      79.65       41.28       
H           -62.7       72.87       36.6        
H           -58.4       75.14       35.38       
H           -62.73      74.8        40.17       
H           -62.78      73.41       39.04       
H           -61.27203   74.04872    39.50423    
H           -63.52      76.23       36.48       
H           -64.35      74.94       37.15       
H           -64.31042   76.34285    38.102      
H           -57.26      80.87       36.97       
H           -58.79      81.49       37.55       
H           -58.89558   80.29405    36.33384    
H           -56.01      79.85       38.64       
H           -56.28      78.27       37.97       
H           -56.59078   78.48759    39.63112    
H           -61.69      70.58       35.21       
H           -57.75      83.16       42.7        
S           -58.65      72.32       34.1        
C           -60.84      71.32       34.94       
C           -59.75      70.95       34.23       
C           -60.29      86.21       46.48       
C           -60.72      84.89       46.72       
C           -59.54      86.34       45.36       
N           -61.37      84.48       47.82       
N           -61.13      82.67       46.03       
S           -61.74      82.88       47.6        
H           -58.78      85.51       43.5        
H           -59.07      87.28       45.11       
C           -59.22      85.21       44.45       
C           -60.54      83.83       45.74       
C           -59.75      83.96       44.57       
C           -64.3       99.65       55.26       
C           -64.07      99.68       53.91       
S           -64.16      98.05       55.93       
C           -63.47      94.45       50.69       
C           -63.37      94.32       52.11       
C           -63.15      93.06       52.64       
C           -62.88      92.0        51.8        
C           -62.95      92.12       50.44       
C           -63.32      93.38       49.82       
C           -62.48      90.63       52.25       
C           -62.07      90.05       50.91       
C           -62.49      90.87       49.84       
C           -63.64      95.92       50.37       
C           -63.63      96.6        51.73       
C           -63.53      95.64       52.76       
C           -61.48      88.79       50.65       
C           -61.26      88.45       49.29       
C           -61.61      89.35       48.3        
C           -62.26      90.54       48.54       
C           -63.71      97.96       52.01       
C           -63.92      98.32       53.35       
C           -63.87      97.36       54.38       
C           -63.61      95.97       54.12       
C           -61.29      90.57       53.21       
C           -63.55      89.68       52.88       
C           -62.4       96.28       49.54       
C           -64.94      96.06       49.53       
H           -63.24      93.58       48.75       
H           -63.0       92.95       53.69       
H           -63.72      98.79       51.25       
H           -63.47      95.31       54.92       
H           -61.19      88.01       51.42       
H           -62.66      90.98       47.67       
H           -61.2       89.5        53.47       
H           -61.59      91.13       54.06       
H           -60.35249   90.95221    52.80615    
H           -63.92      90.06       53.8        
H           -63.06      88.73       53.12       
H           -64.3796    89.52663    52.18983    
H           -64.71      95.51       48.56       
H           -65.77      95.53       50.05       
H           -65.26202   97.06898    49.27239    
H           -62.54      97.31       49.34       
H           -62.56      95.79       48.51       
H           -61.40628   96.01357    49.90004    
H           -60.3       86.51       49.37       
H           -64.04      100.62      53.26       
S           -61.26      88.73       46.69       
C           -60.57      87.3        48.72       
C           -60.55      87.3        47.38       
C           -65.54      102.9       57.98       
C           -64.93      103.23      56.72       
C           -65.6       101.58      58.24       
N           -64.75      104.44      56.21       
N           -63.55      102.64      54.85       
S           -63.77      104.29      54.92       
H           -65.37      99.6        57.65       
H           -65.81      101.14      59.23       
C           -65.21      100.61      57.31       
C           -64.38      102.18      55.86       
C           -64.53      100.75      56.16       
H           66.34       76.06       38.55       
H           -65.63      103.56      58.85       
