612

C           74.94       50.51       62.28       
C           75.6        49.6        63.02       
S           73.43       49.81       61.74       
C           73.62       43.84       64.29       
C           72.66       44.72       63.62       
C           71.5        44.09       63.07       
C           71.32       42.74       63.34       
C           72.18       41.94       64.0        
C           73.35       42.52       64.51       
C           70.01       41.9        63.05       
C           70.34       40.53       63.61       
C           71.62       40.55       64.2        
C           74.87       44.63       64.51       
C           74.55       46.06       64.08       
C           73.27       46.07       63.47       
C           69.47       39.42       63.76       
C           69.92       38.32       64.5        
C           71.27       38.29       64.97       
C           72.07       39.41       64.86       
C           75.43       47.15       63.98       
C           74.95       48.34       63.31       
C           73.71       48.24       62.68       
C           72.87       47.12       62.73       
C           68.73       42.44       63.78       
C           69.74       41.62       61.53       
C           75.28       44.58       66.05       
C           76.01       44.15       63.59       
H           74.08       42.0        65.07       
H           70.76       44.61       62.49       
H           76.42       47.15       64.45       
H           71.93       47.13       62.19       
H           68.53       39.5        63.24       
H           73.07       39.34       65.29       
H           68.4        43.4        63.32       
H           67.87       41.74       63.7        
H           68.89883    42.64554    64.83705    
H           70.68       41.19       61.16       
H           69.03       40.87       61.42       
H           69.53134    42.4978     60.91842    
H           76.31       43.19       63.95       
H           76.86       44.85       63.67       
H           75.62448    44.02608    62.57801    
H           75.16       43.54       66.36       
H           76.37       44.76       66.21       
H           74.63354    45.14999    66.71731    
H           68.31       36.8        64.28       
H           76.62       49.88       63.4        
S           71.74       36.76       65.66       
C           69.37       36.98       64.6        
C           70.18       36.06       65.11       
C           75.91       54.69       61.02       
C           76.94       53.78       61.63       
C           74.73       54.03       60.79       
N           78.16       54.22       62.05       
N           77.76       51.78       62.48       
S           78.98       52.91       62.59       
H           73.46       52.4        60.99       
H           73.87       54.52       60.36       
C           74.5        52.66       61.18       
C           76.7        52.43       61.99       
C           75.38       51.86       61.82       
C           77.04       67.21       50.41       
C           75.82       66.91       51.03       
S           78.4        66.53       51.25       
C           75.46       62.65       55.36       
C           76.73       62.99       54.93       
C           77.81       62.27       55.44       
C           77.64       61.41       56.55       
C           76.34       61.19       57.04       
C           75.23       61.71       56.38       
C           78.67       60.63       57.41       
C           77.78       59.84       58.34       
C           76.45       60.18       58.12       
C           74.4        63.49       54.48       
C           75.3        64.21       53.53       
C           76.65       63.98       53.88       
C           78.13       58.76       59.15       
C           77.12       57.95       59.64       
C           75.7        58.31       59.42       
C           75.39       59.48       58.73       
C           74.91       65.05       52.56       
C           75.91       65.8        51.93       
C           77.32       65.57       52.25       
C           77.68       64.7        53.22       
C           79.5        59.65       56.5        
C           79.61       61.52       58.26       
C           73.47       62.58       53.79       
C           73.59       64.46       55.42       
H           74.17       61.48       56.66       
H           78.85       62.44       55.06       
H           73.84       65.23       52.41       
H           78.76       64.51       53.47       
H           79.16       58.51       59.35       
H           74.41       59.79       58.56       
H           80.09       60.15       55.74       
H           80.25       59.2        57.16       
H           78.91862    58.89635    55.96886    
H           78.94       62.03       58.88       
H           80.25       60.8        58.87       
H           80.2466     62.14928    57.63803    
H           72.72       63.89       55.79       
H           73.24       65.35       54.86       
H           74.15567    64.83711    56.272      
H           72.79       62.08       54.42       
H           72.86       63.17       53.16       
H           74.04572    61.84395    53.22886    
H           78.28       56.29       60.56       
H           74.87       67.33       50.82       
S           74.73       57.08       60.04       
C           77.26       56.65       60.34       
C           76.07       56.06       60.58       
C           78.19       69.45       46.72       
C           76.98       69.79       47.44       
C           78.95       68.52       47.37       
N           76.04       70.67       46.97       
N           75.28       69.32       49.06       
S           74.76       70.48       48.03       
H           79.18       67.07       48.86       
H           79.9        68.19       47.0        
C           78.52       67.85       48.55       
C           76.53       69.08       48.68       
C           77.37       68.09       49.3        
C           81.01       74.44       31.34       
C           81.16       73.08       31.74       
S           80.75       75.44       32.68       
C           80.26       71.38       37.49       
C           80.17       72.7        37.24       
C           80.04       73.69       38.21       
C           79.8        73.3        39.51       
C           79.97       71.92       39.8        
C           80.19       70.92       38.8        
C           79.6        74.12       40.88       
C           79.49       72.95       41.87       
C           79.83       71.7        41.26       
C           80.46       70.61       36.2        
C           80.51       71.72       35.14       
C           80.3        72.96       35.81       
C           79.14       73.01       43.21       
C           79.07       71.71       43.88       
C           79.48       70.51       43.25       
C           79.85       70.47       41.89       
C           80.81       71.62       33.8        
C           80.77       72.86       33.07       
C           80.55       74.07       33.8        
C           80.29       74.14       35.19       
C           80.84       74.95       41.23       
C           78.3        74.94       40.88       
C           81.71       69.71       36.21       
C           79.17       69.85       35.95       
H           80.29       69.81       39.03       
H           79.94       74.73       37.97       
H           80.99       70.69       33.27       
H           80.36       75.05       35.76       
H           78.9        73.94       43.79       
H           80.02       69.56       41.37       
H           81.13       75.62       40.38       
H           80.61       75.66       42.02       
H           81.70932    74.37996    41.55778    
H           77.44       74.31       40.81       
H           78.19       75.49       41.83       
H           78.16879    75.56687    39.998      
H           79.34       69.33       35.09       
H           78.35       70.63       35.81       
H           78.83889    69.16665    36.73198    
H           81.75       69.21       37.18       
H           81.67       69.06       35.41       
H           82.61949    70.30928    36.1677     
H           78.25       72.25       45.83       
H           81.48       72.29       31.08       
S           79.14       69.15       44.19       
C           78.62       71.46       45.2        
C           78.64       70.15       45.51       
C           81.96       76.83       27.6        
C           82.6        75.59       27.96       
C           81.01       77.16       28.52       
N           83.63       75.09       27.35       
N           82.93       73.63       29.2        
S           84.06       73.62       27.99       
H           79.85       76.76       30.23       
H           80.48       78.08       28.37       
C           80.69       76.34       29.7        
C           82.25       74.79       29.12       
C           81.33       75.16       30.1        
C           83.55       89.04       16.5        
C           83.01       89.11       17.71       
S           84.26       87.44       16.27       
C           82.96       84.72       21.95       
C           83.78       84.45       20.84       
C           84.3        83.24       20.58       
C           84.05       82.2        21.51       
C           83.26       82.5        22.63       
C           82.81       83.81       22.93       
C           84.68       80.78       21.66       
C           83.71       80.18       22.7        
C           83.07       81.27       23.38       
C           82.46       86.17       21.89       
C           82.87       86.57       20.49       
C           83.72       85.59       19.9        
C           83.76       78.96       23.34       
C           83.01       78.75       24.52       
C           82.31       79.83       25.1        
C           82.33       81.12       24.54       
C           82.75       87.79       19.9        
C           83.13       87.93       18.57       
C           83.87       86.91       17.9        
C           84.12       85.71       18.57       
C           84.46       79.89       20.4        
C           86.15       80.76       22.22       
C           80.98       86.25       21.9        
C           83.09       87.13       22.82       
H           82.16       84.01       23.73       
H           84.81       83.12       19.67       
H           82.12       88.55       20.36       
H           84.63       84.92       18.1        
H           84.29       78.1        22.91       
H           81.92       82.02       25.06       
H           84.91       80.44       19.6        
H           85.0        78.99       20.35       
H           83.4161     79.71602    20.13903    
H           86.08       81.15       23.18       
H           86.58       79.81       22.42       
H           86.8864     81.3421     21.66595    
H           82.54       88.05       22.69       
H           84.01       87.41       22.3        
H           83.17454    86.87639    23.87671    
H           80.57       85.95       22.89       
H           80.8        87.33       21.79       
H           80.47774    85.72652    21.08648    
H           83.35       76.59       25.04       
H           82.56       90.03       18.04       
S           81.51       79.29       26.61       
C           82.84       77.54       25.24       
C           82.2        77.7        26.47       
C           83.74       91.6        12.93       
C           83.0        92.04       14.05       
C           84.48       90.42       13.17       
N           82.15       93.12       14.05       
N           82.06       91.65       16.12       
S           81.41       93.07       15.55       
H           85.1        88.79       14.4        
H           85.13       90.04       12.43       
C           84.39       89.63       14.38       
C           83.01       91.3        15.29       
C           83.58       90.01       15.39       
C           90.77       98.55       0.45        
C           90.78       97.15       0.62        
S           89.32       99.21       1.15        
C           86.88       94.15       4.09        
C           86.49       95.41       3.81        
C           85.49       96.11       4.55        
C           84.93       95.37       5.59        
C           85.42       94.03       5.9         
C           86.37       93.38       5.12        
C           83.96       95.91       6.63        
C           84.13       94.79       7.69        
C           84.9        93.68       7.21        
C           88.14       93.72       3.31        
C           88.36       95.03       2.54        
C           87.45       96.05       2.91        
C           83.57       94.73       8.9         
C           83.83       93.58       9.71        
C           84.67       92.55       9.24        
C           85.22       92.55       7.98        
C           89.41       95.31       1.69        
C           89.66       96.66       1.35        
C           88.69       97.67       1.72        
C           87.57       97.37       2.46        
C           84.4        97.18       7.34        
C           82.46       95.89       6.23        
C           89.23       93.33       4.28        
C           87.87       92.6        2.28        
H           86.83       92.41       5.37        
H           85.12       97.07       4.21        
H           90.14       94.58       1.54        
H           86.98       98.15       2.84        
H           82.95       95.52       9.22        
H           85.79       91.67       7.75        
H           84.37       97.9        6.55        
H           83.68       97.41       8.08        
H           85.41887    97.08606    7.71575     
H           82.13       94.88       6.08        
H           81.8        96.28       6.95        
H           82.25463    96.37156    5.27396     
H           88.59       92.3        1.56        
H           87.02       92.88       1.74        
H           87.46055    91.69922    2.73722     
H           88.98       92.52       4.99        
H           89.3        94.23       4.9         
H           90.2225     93.23075    3.84046     
H           82.8        93.99       11.64       
H           91.59       96.52       0.25        
S           84.98       91.39       10.53       
C           83.44       93.34       11.11       
C           83.95       92.22       11.67       
C           94.2        101.39      -0.23       
C           92.85       101.76      -0.56       
C           94.25       100.02      0.15        
N           92.48       102.96      -0.99       
N           90.56       101.43      -0.95       
S           90.84       103.01      -1.29       
H           93.31       98.14       0.71        
H           95.2        99.61       0.41        
C           93.12       99.18       0.28        
C           91.71       100.86      -0.46       
C           91.82       99.51       0.08        
C           109.39      102.95      -4.46       
C           109.03      102.74      -3.12       
S           108.22      103.91      -5.26       
C           103.52      103.83      -0.96       
C           103.76      104.41      -2.18       
C           102.76      104.87      -2.97       
C           101.41      104.66      -2.62       
C           101.17      104.01      -1.4        
C           102.24      103.67      -0.54       
C           100.18      104.49      -3.52       
C           99.09       104.32      -2.39       
C           99.78       103.94      -1.19       
C           104.8       103.11      -0.38       
C           105.81      103.71      -1.34       
C           105.17      104.17      -2.48       
C           97.72       104.14      -2.55       
C           97.05       103.38      -1.61       
C           97.69       103.2       -0.39       
C           99.03       103.48      -0.12       
C           107.14      103.34      -1.47       
C           107.8       103.35      -2.7        
C           107.18      103.84      -3.85       
C           105.84      104.28      -3.72       
C           99.8        105.73      -4.38       
C           100.24      103.19      -4.41       
C           104.95      103.61      1.09        
C           104.74      101.58      -0.36       
H           102.19      103.37      0.42        
H           103.0       105.4       -3.89       
H           107.63      102.97      -0.56       
H           105.37      104.69      -4.61       
H           97.23       104.3       -3.47       
H           99.45       103.38      0.91        
H           100.49      106.01      -5.14       
H           98.93       105.44      -5.01       
H           99.56921    106.63218   -3.81351    
H           100.37      102.41      -3.71       
H           99.25       103.02      -4.86       
H           101.11027   103.19713   -5.06627    
H           104.2       101.12      0.44        
H           105.79      101.25      -0.22       
H           104.43968   101.20817   -1.33962    
H           105.8       103.24      1.55        
H           104.13      103.3       1.71        
H           105.06303   104.69081   1.17477     
H           95.23       102.87      -2.58       
H           109.66      102.18      -2.51       
S           96.56       102.43      0.75        
C           95.75       102.85      -1.66       
C           95.42       102.14      -0.55       
C           113.23      101.88      -6.34       
C           112.61      100.97      -5.4        
C           112.43      102.93      -6.67       
N           113.2       99.93       -4.81       
N           110.84      100.34      -4.01       
S           112.0       99.24       -3.87       
H           110.67      104.25      -6.39       
H           112.79      103.64      -7.43       
C           111.15      103.31      -6.11       
C           111.29      101.33      -4.84       
C           110.52      102.47      -5.25       
C           123.67      98.98       -18.91      
C           123.11      97.99       -18.19      
S           123.29      100.49      -18.16      
C           119.42      98.89       -13.31      
C           120.04      100.0       -13.9       
C           119.67      101.27      -13.5       
C           118.82      101.38      -12.39      
C           118.23      100.26      -11.82      
C           118.5       98.98       -12.28      
C           118.07      102.66      -11.89      
C           117.62      102.08      -10.56      
C           117.4       100.68      -10.72      
C           119.95      97.6        -13.99      
C           121.06      98.16       -14.94      
C           120.88      99.57       -15.0       
C           117.09      102.75      -9.48       
C           116.16      102.08      -8.65       
C           115.96      100.72      -8.87       
C           116.56      99.96       -9.82       
C           121.77      97.56       -16.02      
C           122.42      98.36       -16.96      
C           122.32      99.76       -16.87      
C           121.56      100.36      -15.89      
C           119.01      103.93      -11.79      
C           116.85      102.91      -12.75      
C           120.51      96.7        -12.89      
C           118.87      96.91       -14.88      
H           118.05      98.07       -11.96      
H           120.23      102.11      -13.88      
H           121.92      96.46       -16.12      
H           121.45      101.42      -15.8       
H           117.0       103.85      -9.48       
H           116.27      98.99       -10.04      
H           119.31      104.34      -12.8       
H           118.53      104.76      -11.35      
H           119.9031    103.72026   -11.20137   
H           116.24      102.05      -12.77      
H           116.26      103.72      -12.36      
H           116.94183   103.11485   -13.81663   
H           118.12      96.42       -14.37      
H           119.45      96.17       -15.5       
H           118.36398   97.56269    -15.59136   
H           120.1       95.7        -12.94      
H           120.08      97.05       -11.92      
H           121.59367   96.75818    -12.78818   
H           115.34      103.66      -7.51       
H           123.26      96.92       -18.47      
S           114.65      100.1       -7.83       
C           115.31      102.62      -7.67       
C           114.49      101.7       -7.12       
C           126.2       98.83       -22.53      
C           125.03      98.05       -22.42      
C           126.41      99.64       -21.44      
N           124.57      97.31       -23.41      
N           123.09      97.35       -21.38      
S           123.27      96.58       -22.84      
H           125.92      100.31      -19.45      
H           127.41      100.11      -21.43      
C           125.62      99.65       -20.28      
C           124.12      98.12       -21.24      
C           124.42      98.95       -20.18      
C           140.58      94.26       -28.11      
C           140.22      95.55       -28.38      
S           139.22      93.12       -28.21      
C           134.48      97.3        -27.63      
C           134.65      95.83       -27.67      
C           133.77      95.01       -27.04      
C           132.68      95.51       -26.42      
C           132.42      96.87       -26.5       
C           133.24      97.76       -27.15      
C           131.87      94.78       -25.31      
C           130.74      95.82       -25.35      
C           131.14      97.07       -25.86      
C           135.78      98.0        -27.88      
C           136.71      96.84       -28.26      
C           136.07      95.59       -28.06      
C           129.54      95.77       -24.66      
C           128.81      96.95       -24.41      
C           129.25      98.23       -24.87      
C           130.45      98.26       -25.55      
C           138.11      96.95       -28.39      
C           138.77      95.65       -28.31      
C           138.09      94.47       -28.18      
C           136.72      94.43       -28.03      
C           131.36      93.36       -25.75      
C           132.51      94.81       -23.91      
C           135.68      98.98       -28.98      
C           136.5       98.61       -26.62      
H           133.07      98.88       -27.17      
H           134.03      93.92       -27.01      
H           138.56      97.95       -28.5       
H           136.26      93.5        -27.89      
H           129.19      94.83       -24.32      
H           130.86      99.2        -25.89      
H           132.15      92.67       -25.56      
H           130.49      93.13       -25.17      
H           131.04416   93.33796    -26.79301   
H           132.53      95.88       -23.73      
H           131.86      94.27       -23.2       
H           133.52648   94.43326    -23.79627   
H           136.21      99.65       -26.52      
H           137.61      98.56       -26.64      
H           136.09736   98.18457    -25.70077   
H           134.98      99.73       -28.62      
H           136.54      99.53       -29.27      
H           135.28551   98.53437    -29.89318   
H           127.3       96.19       -23.03      
H           140.89      96.39       -28.43      
S           128.3       99.57       -24.23      
C           127.68      97.07       -23.55      
C           127.27      98.4        -23.38      
C           144.06      92.3        -26.32      
C           144.06      93.71       -26.46      
C           143.02      91.65       -26.96      
N           145.05      94.54       -26.0       
N           143.13      95.71       -27.11      
S           144.51      96.09       -26.28      
H           141.11      91.63       -27.91      
H           142.96      90.54       -26.95      
C           141.9       92.31       -27.59      
C           142.96      94.38       -27.21      
C           141.8       93.67       -27.66      
C           153.74      81.2        -18.87      
C           152.5       80.92       -19.53      
S           153.95      82.89       -18.77      
C           149.01      85.21       -22.07      
C           150.15      85.72       -21.37      
C           150.47      87.09       -21.3       
C           149.75      87.88       -22.16      
C           148.54      87.35       -22.65      
C           148.17      86.04       -22.61      
C           149.99      89.25       -22.75      
C           148.58      89.63       -23.21      
C           147.77      88.45       -23.15      
C           149.06      83.65       -22.14      
C           150.21      83.38       -21.22      
C           150.92      84.58       -20.86      
C           148.14      90.8        -23.72      
C           146.9       90.88       -24.28      
C           146.03      89.75       -24.11      
C           146.48      88.54       -23.52      
C           150.69      82.16       -20.85      
C           151.89      82.09       -20.08      
C           152.57      83.31       -19.82      
C           152.09      84.54       -20.14      
C           150.49      90.24       -21.59      
C           150.91      89.3        -24.05      
C           147.74      82.91       -21.67      
C           149.51      83.14       -23.54      
H           147.27      85.62       -23.12      
H           151.47      87.44       -20.99      
H           150.27      81.25       -21.2       
H           152.64      85.45       -19.77      
H           148.78      91.71       -23.8       
H           145.78      87.68       -23.44      
H           151.54      90.02       -21.3       
H           150.52      91.29       -21.93      
H           149.81323   90.19065    -20.73698   
H           150.33      89.05       -24.94      
H           151.33      90.31       -24.17      
H           151.77479   88.6442     -23.94911   
H           148.64      82.73       -24.03      
H           150.25      82.36       -23.43      
H           149.75311   83.91939    -24.26219   
H           147.91      81.9        -21.49      
H           147.05      83.01       -22.55      
H           147.41854   83.28617    -20.69879   
H           146.83      92.78       -25.36      
H           152.15      79.85       -19.53      
S           144.53      89.96       -24.97      
C           146.27      91.88       -25.08      
C           145.04      91.53       -25.55      
C           156.76      78.63       -16.93      
C           155.41      78.2        -17.04      
C           156.98      79.86       -17.42      
N           154.93      77.07       -16.51      
N           153.09      78.49       -17.48      
S           153.28      77.08       -16.62      
H           156.33      81.51       -18.56      
H           157.98      80.3        -17.38      
C           156.0       80.58       -18.12      
C           154.33      79.0        -17.57      
C           154.66      80.27       -18.14      
C           170.94      70.29       -14.23      
C           170.84      71.67       -14.26      
S           169.3       69.64       -14.19      
C           165.65      74.82       -14.56      
C           165.5       73.44       -14.48      
C           164.22      72.83       -14.56      
C           163.1       73.61       -14.75      
C           163.24      74.99       -14.82      
C           164.53      75.58       -14.72      
C           161.65      73.2        -14.92      
C           161.0       74.63       -15.04      
C           161.92      75.68       -15.01      
C           167.12      75.23       -14.54      
C           167.77      73.88       -14.46      
C           166.81      72.82       -14.41      
C           159.62      74.9        -15.26      
C           159.29      76.2        -15.62      
C           160.22      77.22       -15.54      
C           161.58      77.0        -15.16      
C           169.11      73.54       -14.41      
C           169.5       72.19       -14.32      
C           168.47      71.19       -14.31      
C           167.11      71.5        -14.3       
C           161.42      72.3        -16.25      
C           161.02      72.45       -13.67      
C           167.41      75.91       -15.96      
C           167.58      76.09       -13.3       
H           164.68      76.64       -14.91      
H           164.2       71.75       -14.44      
H           169.9       74.32       -14.43      
H           166.37      70.72       -14.08      
H           158.88      74.11       -15.23      
H           162.25      77.83       -15.07      
H           162.11      71.47       -16.2       
H           160.39      72.01       -16.22      
H           161.60759   72.8697     -17.16014   
H           161.18      73.06       -12.85      
H           159.99      72.57       -13.88      
H           161.25085   71.38953    -13.569     
H           168.65      76.42       -13.46      
H           167.55      75.51       -12.36      
H           166.90195   76.92344    -13.11636   
H           167.02      76.94       -15.99      
H           168.41      76.06       -16.1       
H           166.97572   75.32622    -16.7716    
H           157.24      75.98       -16.44      
H           171.67      72.34       -14.21      
S           159.47      78.72       -16.05      
C           158.07      76.61       -16.18      
C           157.94      77.88       -16.43      
C           174.45      67.65       -14.4       
C           174.51      69.03       -14.07      
C           173.13      67.22       -14.56      
N           175.65      69.56       -13.65      
N           173.76      71.08       -13.45      
S           175.4       71.12       -13.41      
H           171.04      67.6        -14.55      
H           172.86      66.19       -14.75      
C           172.0       68.09       -14.41      
C           173.37      69.86       -13.88      
C           172.07      69.39       -14.09      
H           69.87       35.05       65.27       
H           175.34      67.06       -14.51      
