612

C           92.93       51.91       81.96       
C           93.08       53.06       82.73       
S           93.97       52.08       80.58       
C           96.96       57.64       81.9        
C           96.96       56.66       80.9        
C           97.94       56.69       79.92       
C           98.98       57.62       79.95       
C           98.96       58.63       80.95       
C           97.9        58.69       81.87       
C           100.31      57.54       79.25       
C           101.0       58.75       79.81       
C           100.17      59.42       80.72       
C           95.8        57.51       82.82       
C           95.34       56.1        82.37       
C           96.03       55.62       81.22       
C           102.28      59.32       79.56       
C           102.66      60.42       80.22       
C           101.83      61.04       81.11       
C           100.55      60.57       81.31       
C           94.52       55.24       83.04       
C           94.06       54.04       82.39       
C           94.72       53.61       81.19       
C           95.7        54.38       80.6        
C           101.14      56.33       79.61       
C           100.25      57.83       77.71       
C           96.35       57.47       84.24       
C           94.66       58.6        82.63       
H           97.79       59.55       82.57       
H           98.11       55.86       79.22       
H           94.01       55.52       83.92       
H           96.26       53.94       79.8        
H           103.02      58.86       78.92       
H           99.95       60.96       82.08       
H           100.84      55.44       79.05       
H           102.16      56.44       79.38       
H           101.10538   56.14304    80.68329    
H           99.78       58.81       77.58       
H           101.25      57.89       77.36       
H           99.62029    57.14238    77.14543    
H           95.06       59.65       82.78       
H           94.31       58.61       81.58       
H           93.74345    58.54272    83.21716    
H           96.71       58.5        84.36       
H           95.6        57.35       84.95       
H           97.12959    56.72553    84.40154    
H           104.75      60.87       79.56       
H           92.52       53.27       83.66       
S           102.54      62.42       81.94       
C           103.9       61.18       80.09       
C           104.09      62.2        81.01       
C           90.52       48.21       82.28       
C           90.11       49.36       83.0        
C           91.51       48.44       81.42       
N           89.09       49.42       83.88       
N           90.4        51.59       83.75       
S           89.06       50.95       84.52       
H           93.11       49.65       80.68       
H           91.8        47.72       80.73       
C           92.27       49.65       81.37       
C           90.87       50.63       82.97       
C           92.02       50.77       82.17       
C           83.05       33.6        81.33       
C           82.49       34.53       82.15       
S           84.77       33.82       81.16       
C           85.41       39.68       83.37       
C           86.27       38.65       82.91       
C           87.56       38.91       82.46       
C           88.01       40.2        82.48       
C           87.15       41.29       82.83       
C           85.8        40.99       83.25       
C           89.32       40.74       81.88       
C           89.08       42.26       82.0        
C           87.81       42.53       82.53       
C           83.94       39.2        83.32       
C           84.16       37.66       83.33       
C           85.45       37.44       82.84       
C           89.98       43.27       81.68       
C           89.59       44.54       82.07       
C           88.31       44.9        82.56       
C           87.36       43.89       82.77       
C           83.18       36.7        83.34       
C           83.45       35.5        82.64       
C           84.7        35.25       82.17       
C           85.71       36.22       82.24       
C           90.55       40.11       82.61       
C           89.4        40.38       80.36       
C           83.12       39.66       84.59       
C           83.24       39.72       81.98       
H           85.09       41.76       83.42       
H           88.24       38.11       82.21       
H           82.16       36.96       83.58       
H           86.68       36.0        81.78       
H           90.97       43.11       81.28       
H           86.4        44.08       83.21       
H           91.49       40.32       82.01       
H           90.37       39.05       82.69       
H           90.75426    40.62066    83.55107    
H           89.31       39.27       80.22       
H           90.31       40.82       79.9        
H           88.58526    40.85884    79.81684    
H           82.51       40.43       82.16       
H           83.89       40.05       81.22       
H           82.66946    38.97613    81.4239     
H           83.25       40.77       84.65       
H           81.97       39.58       84.56       
H           83.49015    39.21867    85.51537    
H           91.27       45.76       81.26       
H           81.42       34.46       82.39       
S           88.23       46.68       82.88       
C           90.37       45.75       81.81       
C           89.92       46.89       82.38       
C           81.17       30.86       78.32       
C           80.39       31.41       79.4        
C           82.51       30.97       78.59       
N           79.04       31.23       79.48       
N           80.04       32.8        81.21       
S           78.62       32.06       80.85       
H           84.16       31.84       79.6        
H           83.19       30.48       77.99       
C           83.09       31.71       79.66       
C           80.96       32.33       80.41       
C           82.41       32.53       80.48       
C           73.96       20.15       68.08       
C           73.88       20.01       69.39       
S           74.74       21.67       67.56       
C           76.91       23.73       73.1        
C           77.03       24.11       71.73       
C           77.9        25.09       71.29       
C           78.37       25.95       72.2        
C           78.22       25.67       73.6        
C           77.54       24.56       74.04       
C           79.12       27.25       71.97       
C           79.64       27.37       73.37       
C           78.9        26.68       74.37       
C           75.95       22.57       73.37       
C           75.7        22.14       71.87       
C           76.21       23.11       70.99       
C           80.29       28.56       73.87       
C           80.23       28.83       75.22       
C           79.58       27.94       76.16       
C           78.88       26.82       75.75       
C           74.93       21.07       71.45       
C           74.59       21.07       70.1        
C           75.07       22.08       69.23       
C           75.86       23.11       69.63       
C           80.2        27.1        70.9        
C           78.16       28.47       71.79       
C           76.84       21.47       74.03       
C           74.68       22.82       74.22       
H           77.39       24.3        75.12       
H           78.02       25.22       70.23       
H           74.76       20.21       72.09       
H           76.2        23.9        68.94       
H           80.88       29.15       73.17       
H           78.19       26.22       76.35       
H           79.76       26.76       69.92       
H           80.7        28.07       70.78       
H           80.94546    26.35454    71.17689    
H           77.51       28.68       72.56       
H           78.9        29.3        71.69       
H           77.51066    28.37724    70.91945    
H           74.15       21.86       74.07       
H           74.03       23.56       73.83       
H           74.80529    22.97313    75.29189    
H           77.29       21.85       74.94       
H           76.2        20.63       74.23       
H           77.64904    21.12857    73.38426    
H           81.34       30.74       75.43       
H           73.43       19.16       69.91       
S           79.78       28.54       77.86       
C           80.85       29.92       75.94       
C           80.67       29.92       77.32       
C           72.16       17.23       65.37       
C           72.96       18.17       64.85       
C           72.12       17.19       66.72       
N           73.24       18.27       63.54       
N           74.32       20.07       64.95       
S           74.31       19.52       63.38       
H           72.44       18.15       68.66       
H           71.49       16.42       67.22       
C           72.79       18.11       67.57       
C           73.64       19.15       65.67       
C           73.54       19.16       67.09       
C           63.08       5.08        58.37       
C           62.85       5.51        59.63       
S           64.65       5.68        57.79       
C           65.92       10.11       62.29       
C           66.35       9.7         60.99       
C           67.35       10.35       60.32       
C           68.07       11.39       60.86       
C           67.66       11.86       62.17       
C           66.65       11.16       62.89       
C           69.18       12.29       60.32       
C           69.51       13.1        61.61       
C           68.52       12.93       62.65       
C           64.59       9.4         62.6        
C           64.56       8.31        61.53       
C           65.63       8.51        60.55       
C           70.48       14.06       61.76       
C           70.52       14.83       62.98       
C           69.55       14.62       63.95       
C           68.56       13.64       63.84       
C           63.62       7.28        61.34       
C           63.73       6.55        60.13       
C           64.74       6.83        59.17       
C           65.78       7.72        59.46       
C           70.36       11.47       59.77       
C           68.61       13.22       59.21       
C           64.57       8.87        64.07       
C           63.36       10.3        62.54       
H           66.36       11.43       63.89       
H           67.59       9.95        59.28       
H           62.74       7.24        61.99       
H           66.57       7.83        58.8        
H           71.12       14.15       60.96       
H           67.86       13.48       64.72       
H           70.06       10.84       58.93       
H           71.09       12.05       59.27       
H           70.90593    10.94507    60.5539     
H           68.1        14.03       59.74       
H           69.37       13.72       58.6        
H           67.88651    12.74006    58.55098    
H           63.6        11.06       63.15       
H           62.5        9.69        62.77       
H           63.15404    10.77584    61.58122    
H           64.6        9.75        64.74       
H           63.65       8.41        64.37       
H           65.47779    8.29554     64.2544     
H           72.13       16.18       62.57       
H           61.98       5.32        60.28       
S           69.93       15.55       65.37       
C           71.44       15.82       63.31       
C           71.28       16.33       64.58       
C           61.22       2.09        55.65       
C           60.87       2.05        57.06       
C           62.12       3.04        55.32       
N           59.93       1.16        57.51       
N           60.77       2.92        59.19       
S           59.61       1.69        59.06       
H           63.26       4.85        55.75       
H           62.51       3.13        54.3        
C           62.61       4.06        56.22       
C           61.45       3.04        57.99       
C           62.38       4.06        57.57       
C           65.87       -7.48       43.85       
C           65.59       -6.17       43.7        
S           64.99       -8.21       45.2        
C           62.18       -2.87       47.43       
C           62.24       -4.25       47.75       
C           61.7        -4.74       48.92       
C           61.36       -3.81       49.89       
C           61.24       -2.4        49.58       
C           61.6        -1.98       48.25       
C           61.05       -4.01       51.43       
C           60.94       -2.57       51.9        
C           60.92       -1.65       50.83       
C           62.91       -2.64       46.09       
C           63.39       -4.04       45.7        
C           62.92       -4.99       46.7        
C           60.73       -2.14       53.21       
C           60.5        -0.79       53.43       
C           60.59       0.12        52.31       
C           60.79       -0.29       51.04       
C           64.1        -4.35       44.61       
C           64.57       -5.66       44.56       
C           64.1        -6.68       45.47       
C           63.27       -6.33       46.52       
C           59.79       -4.78       51.85       
C           62.28       -4.56       52.17       
C           61.96       -2.08       45.02       
C           64.22       -1.76       46.34       
H           61.56       -0.96       47.98       
H           61.63       -5.84       49.1        
H           64.49       -3.64       43.96       
H           63.02       -7.05       47.27       
H           60.97       -2.81       54.1        
H           60.96       0.49        50.28       
H           59.78       -5.76       51.41       
H           59.71       -4.85       52.93       
H           58.86571    -4.27199    51.57483    
H           63.17       -4.03       51.83       
H           62.25       -4.44       53.22       
H           62.40931    -5.63762    52.06942    
H           63.93       -0.7        46.18       
H           64.98       -2.13       45.59       
H           64.69364    -2.01772    47.28728    
H           61.62       -1.16       45.51       
H           62.53       -1.98       44.1        
H           61.08433    -2.69647    44.81685    
H           60.76       -0.61       55.69       
H           66.2        -5.51       43.1        
S           60.67       1.78        52.97       
C           60.67       -0.15       54.7        
C           60.82       1.17        54.62       
C           69.34       -9.69       42.0        
C           68.31       -10.39      42.78       
C           69.09       -8.35       41.94       
N           68.26       -11.66      42.93       
N           66.22       -10.57      43.76       
S           66.88       -12.03      43.62       
H           67.94       -6.65       42.42       
H           69.65       -7.67       41.4        
C           67.98       -7.71       42.56       
C           67.1        -9.7        43.29       
C           66.93       -8.34       43.17       
C           77.07       -15.62      29.6        
C           76.74       -14.26      29.75       
S           77.66       -16.25      31.11       
C           75.84       -11.47      34.97       
C           76.29       -12.83      35.09       
C           75.96       -13.69      36.21       
C           75.23       -13.14      37.25       
C           74.85       -11.78      37.18       
C           75.26       -10.91      36.11       
C           74.62       -13.84      38.48       
C           73.8        -12.67      39.05       
C           73.88       -11.51      38.21       
C           76.02       -10.97      33.62       
C           76.54       -12.19      32.89       
C           76.7        -13.29      33.81       
C           72.95       -12.74      40.14       
C           72.15       -11.62      40.37       
C           72.31       -10.48      39.56       
C           73.12       -10.41      38.47       
C           76.69       -12.4       31.57       
C           76.91       -13.72      31.07       
C           77.27       -14.76      31.94       
C           77.21       -14.53      33.34       
C           73.67       -15.09      38.29       
C           75.69       -13.94      39.61       
C           74.57       -10.59      33.17       
C           76.96       -9.74       33.73       
H           74.98       -9.87       36.16       
H           76.03       -14.78      36.19       
H           76.43       -11.62      30.88       
H           77.24       -15.4       34.0        
H           72.78       -13.67      40.68       
H           73.22       -9.41       37.93       
H           74.25       -15.97      38.05       
H           73.04       -15.3       39.19       
H           72.94477    -14.8674    37.50732    
H           76.28       -13.0       39.7        
H           75.05       -14.07      40.51       
H           76.35152    -14.78758   39.43084    
H           76.44       -8.95       34.19       
H           77.77       -9.86       34.46       
H           77.43455    -9.44067    32.7955     
H           74.67       -10.0       32.29       
H           74.11       -9.87       33.8        
H           73.91995    -11.45436   33.03427    
H           70.73       -12.26      42.05       
H           76.33       -13.69      29.01       
S           71.25       -9.23       40.06       
C           71.05       -11.45      41.37       
C           70.5        -10.24      41.33       
C           76.25       -18.66      26.57       
C           75.5        -17.43      26.56       
C           77.22       -18.75      27.57       
N           74.49       -17.05      25.74       
N           75.02       -15.41      27.53       
S           73.84       -15.77      26.47       
H           78.32       -18.03      29.23       
H           77.8        -19.68      27.63       
C           77.53       -17.75      28.52       
C           75.81       -16.44      27.57       
C           76.89       -16.54      28.5        
C           72.29       -33.71      21.45       
C           73.51       -33.32      21.89       
S           71.19       -32.41      21.46       
C           75.08       -27.87      23.7        
C           73.79       -27.97      23.12       
C           73.0        -26.8       22.83       
C           73.61       -25.62      23.1        
C           74.95       -25.53      23.61       
C           75.67       -26.69      23.91       
C           72.91       -24.19      23.16       
C           74.11       -23.35      23.43       
C           75.24       -24.15      23.84       
C           75.73       -29.3       23.71       
C           74.55       -30.13      23.18       
C           73.48       -29.37      22.86       
C           74.03       -22.0       23.6        
C           75.01       -21.4       24.42       
C           76.18       -22.22      24.81       
C           76.31       -23.55      24.49       
C           74.65       -31.43      22.88       
C           73.56       -31.99      22.27       
C           72.36       -31.23      22.04       
C           72.34       -29.9       22.31       
C           72.3        -23.87      21.75       
C           71.91       -23.96      24.28       
C           76.88       -29.28      22.61       
C           76.29       -29.84      25.1        
H           76.56       -26.64      24.44       
H           71.96       -26.84      22.42       
H           75.53       -31.95      23.13       
H           71.49       -29.29      22.07       
H           73.11       -21.48      23.28       
H           77.15       -24.14      24.77       
H           71.66       -24.64      21.47       
H           71.65       -22.92      21.71       
H           73.05319    -23.77052   20.96839    
H           72.59       -23.87      25.17       
H           71.44       -22.91      24.2        
H           71.15312    -24.7381    24.37903    
H           76.68       -30.81      24.99       
H           75.39       -29.94      25.71       
H           77.07309    -29.23256   25.55375    
H           77.66       -29.91      22.9        
H           77.39       -28.36      22.72       
H           76.51674    -29.34411   21.58431    
H           74.32       -19.39      24.67       
H           74.43       -33.99      21.93       
S           77.21       -21.2       25.77       
C           75.07       -20.12      24.86       
C           76.09       -19.84      25.69       
C           70.74       -37.56      20.09       
C           72.19       -37.29      20.01       
C           69.97       -36.59      20.65       
N           73.1        -38.09      19.53       
N           73.97       -35.86      20.23       
S           74.49       -37.27      19.49       
H           69.84       -34.67      21.49       
H           68.88       -36.65      20.77       
C           70.48       -35.33      21.03       
C           72.68       -36.02      20.47       
C           71.86       -34.97      21.01       
C           61.31       -39.73      7.53        
C           60.86       -39.2       8.73        
S           62.7        -40.71      7.65        
C           64.31       -39.89      13.72       
C           64.82       -40.5       12.53       
C           66.14       -40.88      12.55       
C           66.94       -40.75      13.62       
C           66.34       -40.28      14.8        
C           65.06       -39.79      14.86       
C           68.48       -40.95      13.82       
C           68.61       -40.6       15.32       
C           67.35       -40.17      15.82       
C           62.85       -39.52      13.48       
C           62.64       -39.81      12.03       
C           63.76       -40.53      11.52       
C           69.76       -40.42      16.06       
C           69.58       -39.79      17.31       
C           68.29       -39.41      17.81       
C           67.17       -39.66      17.09       
C           61.57       -39.39      11.23       
C           61.63       -39.68      9.82        
C           62.68       -40.55      9.38        
C           63.76       -40.92      10.2        
C           68.96       -42.42      13.47       
C           69.16       -39.84      12.92       
C           61.81       -40.33      14.35       
C           62.67       -38.02      13.69       
H           64.69       -39.32      15.73       
H           66.59       -41.19      11.64       
H           60.76       -38.77      11.62       
H           64.58       -41.47      9.71        
H           70.77       -40.66      15.69       
H           66.18       -39.25      17.39       
H           70.08       -42.34      13.39       
H           68.61       -42.77      12.51       
H           68.51157    -43.15773   14.13541    
H           68.95       -39.86      11.88       
H           70.21       -39.93      13.12       
H           68.86893    -38.80349   13.09038    
H           62.57       -37.84      14.79       
H           61.6        -37.81      13.28       
H           63.40215    -37.37315   13.20664    
H           61.93       -40.13      15.38       
H           60.85       -39.81      14.23       
H           61.71216    -41.39231   14.12636    
H           71.57       -39.32      17.88       
H           59.87       -38.61      8.85        
S           68.39       -38.6       19.31       
C           70.58       -39.25      18.2        
C           70.09       -38.55      19.27       
C           59.22       -39.52      3.71        
C           59.47       -38.27      4.44        
C           59.93       -40.56      4.11        
N           59.03       -37.07      4.05        
N           60.2        -37.14      6.28        
S           59.34       -36.12      5.37        
H           61.17       -41.45      5.64        
H           60.0        -41.38      3.41        
C           60.73       -40.56      5.3         
C           60.11       -38.36      5.71        
C           60.75       -39.51      6.18        
C           54.55       -43.42      -11.58      
C           54.76       -44.39      -10.59      
S           54.44       -41.81      -10.97      
C           55.15       -42.67      -4.71       
C           55.03       -41.58      -5.59       
C           55.33       -40.27      -5.19       
C           55.74       -40.08      -3.88       
C           55.78       -41.13      -2.98       
C           55.45       -42.38      -3.35       
C           56.25       -38.76      -3.21       
C           56.47       -39.32      -1.81       
C           56.22       -40.69      -1.66       
C           55.16       -44.04      -5.45       
C           54.96       -43.57      -6.85       
C           54.97       -42.13      -6.99       
C           57.03       -38.66      -0.76       
C           57.44       -39.31      0.45        
C           57.29       -40.7       0.51        
C           56.66       -41.47      -0.52       
C           54.93       -44.33      -8.02       
C           54.82       -43.75      -9.26       
C           54.64       -42.34      -9.29       
C           54.69       -41.52      -8.23       
C           57.52       -38.24      -3.89       
C           55.2        -37.61      -3.11       
C           56.53       -44.79      -5.21       
C           53.94       -44.94      -5.17       
H           55.56       -43.23      -2.65       
H           55.52       -39.5       -5.97       
H           55.07       -45.4       -7.9        
H           54.49       -40.47      -8.2        
H           57.04       -37.61      -0.8        
H           56.58       -42.54      -0.5        
H           57.54       -37.1       -3.95       
H           57.39       -38.38      -4.97       
H           58.44463    -38.7489    -3.61763    
H           54.83       -37.45      -4.14       
H           55.8        -36.68      -2.79       
H           54.27328    -37.86663   -2.59674    
H           54.23       -45.98      -5.37       
H           53.14       -44.74      -5.86       
H           53.49202    -44.78356   -4.18871    
H           56.65       -45.03      -4.16       
H           56.75       -45.74      -5.64       
H           57.40327    -44.16623   -5.4008     
H           58.21       -37.62      1.64        
H           54.89       -45.47      -10.71      
S           58.03       -41.28      1.96        
C           58.02       -38.69      1.55        
C           58.5        -39.66      2.42        
C           53.78       -44.07      -15.82      
C           54.63       -45.02      -15.13      
C           53.39       -43.01      -15.07      
N           55.05       -46.16      -15.58      
N           55.5        -45.85      -13.2       
S           55.84       -46.95      -14.33      
H           53.05       -42.12      -13.15      
H           52.74       -42.25      -15.55      
C           53.71       -42.81      -13.7       
C           54.88       -44.8       -13.73      
C           54.43       -43.67      -12.96      
C           46.12       -45.73      -30.54      
C           46.28       -44.46      -29.98      
S           46.69       -47.02      -29.49      
C           49.13       -43.9       -24.5       
C           49.09       -45.2       -25.05      
C           49.75       -46.25      -24.43      
C           50.42       -46.0       -23.23      
C           50.52       -44.71      -22.75      
C           49.87       -43.66      -23.35      
C           51.45       -46.87      -22.45      
C           51.84       -46.04      -21.26      
C           51.29       -44.75      -21.47      
C           48.53       -42.87      -25.45      
C           48.06       -43.78      -26.61      
C           48.3        -45.14      -26.27      
C           52.55       -46.33      -20.11      
C           52.81       -45.37      -19.19      
C           52.27       -44.1       -19.37      
C           51.52       -43.8       -20.52      
C           47.4        -43.51      -27.83      
C           46.98       -44.51      -28.68      
C           47.26       -45.88      -28.28      
C           47.93       -46.17      -27.08      
C           50.78       -48.11      -21.89      
C           52.75       -47.22      -23.18      
C           47.37       -42.15      -24.82      
C           49.69       -41.88      -25.79      
H           50.0        -42.65      -23.0       
H           49.61       -47.25      -24.8       
H           47.21       -42.47      -28.05      
H           48.12       -47.13      -26.72      
H           52.91       -47.36      -19.95      
H           51.27       -42.77      -20.69      
H           50.3        -48.48      -22.78      
H           51.52       -48.84      -21.44      
H           49.97835    -47.88693   -21.18594   
H           53.22       -46.27      -23.56      
H           53.46       -47.66      -22.42      
H           52.67244    -48.00965   -23.92735   
H           50.02       -41.38      -24.89      
H           50.59       -42.52      -26.0       
H           49.55967    -41.20662   -26.63716   
H           47.65       -41.71      -23.88      
H           47.04       -41.27      -25.47      
H           46.47087    -42.76404   -24.76883   
H           53.85       -46.33      -17.51      
H           45.93       -43.56      -30.49      
S           52.64       -43.02      -18.05      
C           53.36       -45.46      -17.87      
C           53.29       -44.35      -17.13      
C           44.47       -47.26      -34.38      
C           44.22       -45.92      -33.99      
C           45.26       -47.94      -33.52      
N           43.43       -45.12      -34.62      
N           44.52       -44.11      -32.62      
S           43.47       -43.71      -33.82      
H           46.4        -48.08      -31.69      
H           45.45       -48.98      -33.72      
C           45.74       -47.44      -32.29      
C           44.82       -45.38      -32.72      
C           45.59       -46.17      -31.83      
H           105.02      62.32       81.53       
H           44.35       -47.64      -35.41      
