612

C           89.17       99.76       50.73       
C           89.37       99.77       52.08       
S           87.45       99.87       50.34       
C           84.73       99.69       56.0        
C           84.33       99.81       54.62       
C           83.03       99.77       54.18       
C           82.02       99.69       55.11       
C           82.38       99.52       56.46       
C           83.73       99.6        56.95       
C           80.54       99.93       55.0        
C           80.03       99.59       56.37       
C           81.12       99.5        57.28       
C           86.26       99.6        56.16       
C           86.71       99.56       54.75       
C           85.57       99.75       53.83       
C           78.72       99.63       56.85       
C           78.55       99.68       58.29       
C           79.69       99.59       59.1        
C           80.95       99.38       58.65       
C           88.04       99.63       54.24       
C           88.17       99.72       52.83       
C           87.06       99.69       52.01       
C           85.8        99.8        52.46       
C           80.23       101.35      54.4        
C           79.94       98.86       54.0        
C           86.84       100.86      56.92       
C           86.45       98.29       56.93       
H           83.94       99.62       58.0        
H           82.88       99.68       53.13       
H           88.95       99.57       54.82       
H           84.95       99.83       51.76       
H           77.86       99.6        56.14       
H           81.74       99.13       59.31       
H           80.08       101.22      53.35       
H           81.14       101.99      54.5        
H           79.52915    101.99421   54.93094    
H           79.73       99.23       53.05       
H           78.97       98.68       54.14       
H           80.5818     97.98356    53.91029    
H           85.89       98.26       57.83       
H           86.02       97.5        56.34       
H           87.48917    97.98313    57.04856    
H           86.44       101.04      57.91       
H           87.85       100.78      57.22       
H           86.67634    101.79213   56.37922    
H           76.42       99.66       58.63       
H           90.31       99.65       52.48       
S           79.3        99.75       60.79       
C           77.38       99.77       59.14       
C           77.59       99.81       60.51       
C           91.88       99.15       47.37       
C           92.42       99.86       48.53       
C           90.5        98.85       47.42       
N           93.68       100.22      48.77       
N           92.17       100.77      50.68       
S           93.75       100.98      50.21       
H           88.77       98.55       48.67       
H           90.04       98.36       46.62       
C           89.69       99.13       48.54       
C           91.54       100.14      49.7        
C           90.15       99.68       49.69       
C           99.01       94.03       33.39       
C           97.66       94.04       33.66       
S           99.76       95.28       34.39       
C           95.06       96.62       38.49       
C           96.46       96.72       38.44       
C           97.2        97.28       39.48       
C           96.64       97.47       40.67       
C           95.22       97.32       40.68       
C           94.42       96.97       39.66       
C           97.21       97.62       42.0        
C           95.95       97.81       42.87       
C           94.79       97.59       42.08       
C           94.49       95.88       37.25       
C           95.87       95.51       36.61       
C           96.94       96.18       37.19       
C           95.76       98.14       44.25       
C           94.48       98.27       44.77       
C           93.41       97.89       43.93       
C           93.59       97.47       42.67       
C           96.0        94.72       35.53       
C           97.26       94.71       34.89       
C           98.35       95.48       35.37       
C           98.23       96.17       36.61       
C           97.97       96.26       42.37       
C           98.08       98.85       42.1        
C           93.7        94.65       37.73       
C           93.62       96.86       36.38       
H           93.37       96.83       39.74       
H           98.25       97.52       39.37       
H           95.25       94.18       34.97       
H           99.07       96.77       36.95       
H           96.66       98.33       44.84       
H           92.67       97.21       42.12       
H           98.98       96.17       41.93       
H           97.34       95.46       41.86       
H           98.01988    95.98921    43.42465    
H           99.07       98.4        42.08       
H           98.11       99.12       43.16       
H           97.90961    99.65934    41.39005    
H           92.83       97.39       36.92       
H           94.27       97.68       36.16       
H           93.36539    96.46395    35.39694    
H           92.69       94.92       38.11       
H           93.52       94.04       36.8        
H           94.18203    94.10771    38.54343    
H           94.67       99.0        46.87       
H           97.01       93.31       33.12       
S           91.91       98.09       44.77       
C           94.04       98.61       46.11       
C           92.67       98.71       46.22       
C           101.5       92.2        30.26       
C           100.12      92.58       29.99       
C           101.95      92.45       31.52       
N           99.41       92.5        28.89       
N           98.16       93.56       30.78       
S           97.88       93.02       29.23       
H           101.55      93.21       33.5        
H           102.97      92.25       31.78       
C           101.14      93.04       32.55       
C           99.3        93.11       31.11       
C           99.81       93.37       32.4        
C           112.81      88.35       18.63       
C           111.6       88.98       18.42       
S           113.01      87.96       20.32       
C           107.54      90.08       22.86       
C           108.78      89.55       23.29       
C           108.96      89.42       24.66       
C           107.96      89.86       25.52       
C           106.84      90.46       25.0        
C           106.6       90.54       23.69       
C           107.85      89.61       27.07       
C           106.55      90.46       27.36       
C           106.0       90.96       26.11       
C           107.51      90.1        21.35       
C           108.88      89.58       20.96       
C           109.58      89.2        22.16       
C           105.83      90.67       28.53       
C           104.54      91.1        28.49       
C           103.97      91.62       27.28       
C           104.75      91.6        26.14       
C           109.46      89.57       19.69       
C           110.7       88.99       19.57       
C           111.4       88.52       20.69       
C           110.82      88.6        22.01       
C           107.75      88.1        27.33       
C           109.15      90.13       27.8        
C           106.43      89.14       20.88       
C           107.25      91.51       20.78       
H           105.76      91.12       23.27       
H           109.89      88.98       25.08       
H           108.92      89.89       18.76       
H           111.43      88.23       22.87       
H           106.16      90.36       29.48       
H           104.27      91.85       25.22       
H           108.77      87.65       27.43       
H           107.2       87.64       26.55       
H           107.19464   87.8891     28.24389    
H           109.97      89.83       27.2        
H           109.18      89.52       28.71       
H           109.17897   91.19468    28.03177    
H           106.24      91.73       21.15       
H           107.38      91.4        19.7        
H           107.98293   92.27816    21.02666    
H           105.41      89.62       20.9        
H           106.58      88.87       19.81       
H           106.53486   88.21028    21.43923    
H           104.0       90.93       30.51       
H           111.42      89.38       17.47       
S           102.31      92.12       27.58       
C           103.67      91.21       29.54       
C           102.47      91.75       29.27       
C           116.59      88.92       16.86       
C           116.22      87.6        17.16       
C           115.64      89.97       16.83       
N           116.95      86.47       17.15       
N           114.63      86.01       17.97       
S           116.02      85.21       17.76       
H           113.76      90.52       17.71       
H           115.83      91.02       16.64       
C           114.35      89.67       17.4        
C           114.88      87.33       17.68       
C           114.0       88.4        17.82       
C           131.9       94.34       16.73       
C           130.93      94.88       15.98       
S           131.54      92.68       17.09       
C           125.48      92.47       15.04       
C           126.41      91.72       15.86       
C           125.99      90.64       16.57       
C           124.71      90.27       16.53       
C           123.87      90.9        15.65       
C           124.17      92.03       14.92       
C           124.11      89.09       17.29       
C           122.64      89.26       16.87       
C           122.54      90.34       15.97       
C           126.14      93.77       14.51       
C           127.62      93.51       15.06       
C           127.74      92.24       15.74       
C           121.51      88.72       17.35       
C           120.3       89.17       16.89       
C           120.25      90.1        15.86       
C           121.35      90.81       15.41       
C           128.71      94.3        14.9        
C           129.89      94.01       15.63       
C           129.97      92.71       16.28       
C           128.95      91.82       16.25       
C           124.81      87.73       16.98       
C           124.33      89.45       18.77       
C           126.03      93.71       12.98       
C           125.4       95.01       15.09       
H           123.39      92.61       14.4        
H           126.75      90.0        17.13       
H           128.55      95.2        14.32       
H           128.99      90.9        16.82       
H           121.53      88.03       18.18       
H           121.3       91.74       14.78       
H           125.64      87.72       17.73       
H           125.27      87.81       15.97       
H           124.11397   86.89192    17.01551    
H           125.33      89.75       18.86       
H           124.17      88.52       19.28       
H           123.78173   90.29405    19.18842    
H           124.33      95.1        14.83       
H           125.34      94.79       16.06       
H           125.90984   95.95787    14.91766    
H           126.24      94.62       12.49       
H           124.94      93.57       12.77       
H           126.50044   92.84263    12.51691    
H           118.89      87.96       17.97       
H           131.05      95.95       15.65       
S           118.6       90.44       15.39       
C           119.01      88.75       17.26       
C           117.96      89.28       16.55       
C           135.01      95.82       19.58       
C           134.78      96.49       18.36       
C           134.24      94.72       19.72       
N           135.48      97.57       17.87       
N           133.9       96.73       16.18       
S           135.08      97.88       16.3        
H           132.85      93.34       19.13       
H           134.28      94.18       20.68       
C           133.3       94.28       18.78       
C           133.77      96.05       17.34       
C           132.97      94.89       17.54       
C           149.06      93.25       27.76       
C           149.03      94.17       26.81       
S           147.47      92.72       28.29       
C           143.71      95.83       24.18       
C           143.51      95.03       25.34       
C           142.26      94.61       25.77       
C           141.17      95.02       25.06       
C           141.34      95.76       23.9        
C           142.56      96.2        23.46       
C           139.68      94.82       25.45       
C           139.04      95.3        24.18       
C           139.99      95.87       23.28       
C           145.16      96.22       23.92       
C           145.8       95.42       25.09       
C           144.87      94.73       25.91       
C           137.69      95.27       23.87       
C           137.3       95.74       22.61       
C           138.27      96.38       21.73       
C           139.63      96.48       22.09       
C           147.19      95.29       25.34       
C           147.67      94.49       26.4        
C           146.65      93.86       27.19       
C           145.28      93.95       26.98       
C           139.59      93.28       25.62       
C           139.08      95.5        26.7        
C           145.68      95.78       22.52       
C           145.46      97.67       24.25       
H           142.73      96.75       22.47       
H           142.19      94.08       26.7        
H           147.92      95.87       24.74       
H           144.6       93.47       27.65       
H           136.99      94.81       24.65       
H           140.34      96.9        21.37       
H           139.89      93.07       26.63       
H           140.3       92.73       24.96       
H           138.58273   92.86566    25.57714    
H           139.36      94.93       27.59       
H           137.97      95.45       26.48       
H           139.36213   96.55094    26.76348    
H           146.57      97.74       24.12       
H           145.24      97.92       25.33       
H           145.11561   98.42204    23.54013    
H           146.72      96.13       22.54       
H           145.13      96.35       21.8        
H           145.54101   94.70976    22.36711    
H           135.13      95.39       22.4        
H           149.93      94.59       26.4        
S           137.59      96.8        20.18       
C           136.02      95.72       21.96       
C           136.01      96.06       20.61       
C           152.08      90.11       28.74       
C           152.46      91.23       28.01       
C           150.84      90.25       29.25       
N           153.66      91.48       27.58       
N           152.03      93.18       26.78       
S           153.61      92.86       26.62       
H           148.94      91.03       29.23       
H           150.44      89.43       29.86       
C           149.92      91.24       28.9        
C           151.53      92.31       27.67       
C           150.14      92.3        28.15       
C           160.46      76.22       32.37       
C           159.1       76.31       32.22       
S           161.21      77.61       31.61       
C           156.24      81.35       30.34       
C           157.66      81.47       30.41       
C           158.32      82.67       30.25       
C           157.54      83.8        29.99       
C           156.11      83.69       29.87       
C           155.48      82.44       30.06       
C           157.93      85.32       29.95       
C           156.55      86.0        29.68       
C           155.53      84.99       29.71       
C           155.74      79.9        30.5        
C           157.11      79.21       30.77       
C           158.2       80.13       30.61       
C           156.19      87.31       29.32       
C           154.77      87.59       29.21       
C           153.82      86.55       29.33       
C           154.14      85.24       29.59       
C           157.32      77.88       31.27       
C           158.6       77.53       31.59       
C           159.68      78.43       31.28       
C           159.51      79.73       30.86       
C           158.33      85.8        31.35       
C           158.95      85.68       28.87       
C           154.8       79.81       31.71       
C           155.03      79.3        29.21       
H           154.37      82.3        30.01       
H           159.4       82.74       30.22       
H           156.54      77.12       31.33       
H           160.28      80.46       30.86       
H           156.92      88.14       29.38       
H           153.43      84.45       29.6        
H           159.27      85.44       31.71       
H           157.65      85.34       32.07       
H           158.39429   86.87868    31.49287    
H           159.78      85.0        29.07       
H           159.29      86.78       28.92       
H           158.57923   85.48035    27.86463    
H           153.97      79.23       29.38       
H           155.43      78.35       29.0        
H           155.19968   79.91508    28.32627    
H           154.07      80.58       31.66       
H           154.32      78.77       31.83       
H           155.30793   80.0422     32.64605    
H           154.91      89.76       28.88       
H           158.38      75.6        32.58       
S           152.29      87.36       29.15       
C           154.27      88.89       29.01       
C           152.94      89.0        29.07       
C           162.93      73.6        34.91       
C           161.59      73.25       34.66       
C           163.4       74.66       34.22       
N           160.9       72.24       35.16       
N           159.51      73.55       33.52       
S           159.4       72.25       34.47       
H           163.12      76.28       32.95       
H           164.4       74.85       34.34       
C           162.55      75.5        33.39       
C           160.79      74.01       33.72       
C           161.28      75.23       33.11       
C           171.07      67.66       48.24       
C           171.57      68.73       47.51       
S           170.11      66.7        47.18       
C           169.12      70.66       42.27       
C           168.65      69.42       42.74       
C           167.7       68.71       42.05       
C           167.27      69.14       40.8        
C           167.66      70.47       40.4        
C           168.58      71.26       41.16       
C           166.16      68.64       39.92       
C           165.88      69.86       39.02       
C           166.73      70.97       39.31       
C           170.27      71.15       43.12       
C           170.4       70.0        44.2        
C           169.5       69.01       43.95       
C           164.8       70.06       38.12       
C           164.75      71.24       37.33       
C           165.61      72.25       37.6        
C           166.59      72.17       38.57       
C           171.19      69.98       45.27       
C           170.97      68.97       46.23       
C           170.16      67.88       45.87       
C           169.38      67.86       44.66       
C           166.46      67.45       39.09       
C           164.75      68.49       40.71       
C           171.6       71.14       42.36       
C           169.81      72.47       43.7        
H           168.9       72.27       40.86       
H           167.38      67.77       42.44       
H           171.8       70.85       45.54       
H           168.74      67.02       44.23       
H           164.05      69.31       37.86       
H           167.25      72.97       38.66       
H           166.68      66.72       39.85       
H           165.64      67.06       38.41       
H           167.26132   67.62387    38.37184    
H           164.66      69.4        41.35       
H           163.97      68.44       40.01       
H           164.65801   67.56307    41.27607    
H           169.88      73.28       42.96       
H           170.44      72.68       44.55       
H           168.80805   72.39502    44.12259    
H           171.63      72.01       41.67       
H           172.37      71.22       43.04       
H           171.71607   70.33478    41.63457    
H           162.77      71.04       36.09       
H           172.24      69.41       47.96       
S           165.2       73.57       36.59       
C           163.69      71.64       36.35       
C           163.83      72.83       35.78       
C           171.15      67.47       52.65       
C           170.48      66.39       51.9        
C           171.87      68.36       51.91       
N           169.67      65.45       52.35       
N           169.82      65.33       49.91       
S           169.2       64.48       51.15       
H           172.34      69.27       49.98       
H           172.36      69.13       52.48       
C           171.89      68.34       50.48       
C           170.5       66.36       50.46       
C           171.16      67.42       49.73       
C           160.08      70.79       64.12       
C           160.64      71.83       63.39       
S           161.05      69.35       63.97       
C           165.88      71.12       60.11       
C           165.49      70.01       60.93       
C           166.13      68.7        60.86       
C           167.12      68.62       59.88       
C           167.5       69.69       59.04       
C           166.8       70.96       59.1        
C           167.95      67.4        59.62       
C           168.7       67.82       58.34       
C           168.5       69.18       58.07       
C           164.93      72.3        60.29       
C           164.0       71.77       61.4        
C           164.25      70.41       61.62       
C           169.41      67.01       57.45       
C           169.93      67.61       56.25       
C           169.93      69.0        56.09       
C           169.23      69.78       57.04       
C           162.85      72.27       61.91       
C           161.91      71.48       62.71       
C           162.23      70.19       62.99       
C           163.35      69.61       62.4        
C           168.88      67.21       60.85       
C           166.95      66.18       59.47       
C           165.76      73.48       60.79       
C           164.17      72.57       58.93       
H           166.95      71.83       58.45       
H           165.89      67.89       61.48       
H           162.57      73.28       61.75       
H           163.47      68.54       62.53       
H           169.46      65.92       57.49       
H           169.09      70.83       56.9        
H           168.38      66.5        61.59       
H           168.88      68.06       61.49       
H           169.88269   66.84473    60.62798    
H           166.22      66.23       60.33       
H           167.55      65.27       59.58       
H           166.47795   66.10848    58.49013    
H           164.78      72.65       58.09       
H           163.74      71.57       58.84       
H           163.35201   73.29011    58.90903    
H           165.05      74.32       60.89       
H           166.55      73.65       60.04       
H           166.21781   73.21113    61.74195    
H           170.41      65.83       55.04       
H           160.19      72.86       63.19       
S           170.78      69.43       54.58       
C           170.46      66.9        55.1        
C           170.87      67.7        54.1        
C           156.5       70.56       66.71       
C           156.99      71.81       66.23       
C           157.25      69.44       66.26       
N           156.49      73.06       66.51       
N           158.37      73.16       65.08       
S           157.29      74.19       65.67       
H           158.93      68.62       65.29       
H           156.98      68.43       66.46       
C           158.47      69.54       65.54       
C           158.13      71.89       65.43       
C           158.93      70.73       65.04       
C           144.09      66.33       76.81       
C           144.87      65.38       76.14       
S           144.83      67.93       76.75       
C           149.66      66.87       72.7        
C           149.08      67.86       73.41       
C           149.5       69.2        73.25       
C           150.5       69.46       72.3        
C           151.03      68.43       71.51       
C           150.65      67.12       71.78       
C           151.33      70.7        72.13       
C           151.96      70.42       70.76       
C           151.97      69.06       70.55       
C           149.08      65.51       73.03       
C           147.96      65.94       74.01       
C           148.09      67.35       74.29       
C           152.75      71.24       70.05       
C           153.68      70.68       69.1        
C           153.68      69.25       68.92       
C           152.75      68.43       69.61       
C           147.01      65.22       74.7        
C           146.09      65.89       75.59       
C           146.24      67.27       75.86       
C           147.26      67.99       75.27       
C           150.45      71.94       72.11       
C           152.48      70.94       73.11       
C           148.66      64.65       71.82       
C           150.01      64.71       74.01       
H           151.14      66.35       71.13       
H           149.11      70.0        73.89       
H           146.74      64.26       74.38       
H           147.32      69.04       75.52       
H           152.68      72.31       70.26       
H           152.72      67.34       69.41       
H           149.99      72.07       73.0        
H           151.05      72.82       71.93       
H           149.69057   71.95489    71.32824    
H           153.12      70.08       72.98       
H           153.01      71.79       72.76       
H           152.23527   71.10781    74.15883    
H           149.43      63.95       74.34       
H           150.43      65.31       74.77       
H           150.87994   64.28547    73.50892    
H           148.77      63.6        72.1        
H           149.29      64.94       70.95       
H           147.64796   64.82818    71.45652    
H           154.86      72.3        68.29       
H           144.55      64.34       76.16       
S           154.79      68.69       67.71       
C           154.72      71.23       68.3        
C           155.4       70.34       67.6        
C           139.99      66.2        78.25       
C           141.02      66.79       79.09       
C           140.38      65.71       77.06       
N           140.82      67.47       80.26       
N           143.29      67.42       79.45       
S           142.3       67.97       80.67       
H           142.0       65.38       75.59       
H           139.69      65.22       76.44       
C           141.75      65.63       76.64       
C           142.43      66.79       78.64       
C           142.78      66.11       77.37       
C           124.86      72.61       80.23       
C           125.35      72.31       79.03       
S           125.97      72.16       81.46       
C           130.6       69.23       78.05       
C           130.21      69.46       79.4        
C           131.02      68.99       80.4        
C           132.28      68.47       80.15       
C           132.65      68.21       78.77       
C           131.83      68.69       77.77       
C           133.29      67.99       81.17       
C           134.32      67.43       80.21       
C           133.94      67.62       78.86       
C           129.52      69.78       77.1        
C           128.52      70.47       78.08       
C           128.96      70.22       79.47       
C           135.52      66.95       80.63       
C           136.43      66.68       79.66       
C           136.04      66.7        78.27       
C           134.8       67.11       77.84       
C           127.33      71.05       77.85       
C           126.52      71.6        78.94       
C           127.08      71.34       80.31       
C           128.21      70.61       80.58       
C           133.8       69.09       82.09       
C           132.81      66.87       82.07       
C           130.05      70.91       76.22       
C           128.66      68.81       76.2        
H           132.03      68.44       76.71       
H           130.69      69.16       81.39       
H           126.95      71.09       76.84       
H           128.49      70.47       81.61       
H           135.82      66.8        81.67       
H           134.56      67.18       76.76       
H           134.51      68.67       82.78       
H           133.08      69.44       82.76       
H           134.2174    69.91734    81.51608    
H           131.95      67.21       82.6        
H           133.57      66.52       82.79       
H           132.44115   66.05998    81.44079    
H           128.54      68.96       75.17       
H           127.62      68.86       76.63       
H           128.93217   67.76429    76.34325    
H           129.39      71.37       75.35       
H           130.79      70.4        75.66       
H           130.4574    71.7534     76.7775     
H           138.29      66.26       80.84       
H           124.78      72.48       78.09       
S           137.44      66.46       77.29       
C           137.82      66.33       79.87       
C           138.53      66.33       78.67       
C           120.8       74.35       80.71       
C           121.62      73.97       81.92       
C           121.43      74.12       79.55       
N           121.28      74.28       83.15       
N           123.44      73.09       82.93       
S           122.43      73.64       84.08       
H           123.05      73.66       78.36       
H           120.82      74.2        78.68       
C           122.68      73.53       79.38       
C           122.91      73.39       81.73       
C           123.47      73.15       80.43       
H           76.85       99.9        61.31       
H           119.9       74.99       80.88       
