612

C           21.21       31.75       80.81       
C           20.28       32.74       80.8        
S           21.29       31.0        82.36       
C           17.71       34.9        86.0        
C           18.34       33.63       86.05       
C           18.24       32.8        87.2        
C           17.53       33.29       88.28       
C           16.81       34.56       88.26       
C           16.94       35.3        87.08       
C           17.19       32.48       89.55       
C           16.14       33.44       90.23       
C           15.93       34.64       89.43       
C           17.87       35.42       84.57       
C           18.69       34.33       83.87       
C           19.08       33.34       84.81       
C           15.52       33.31       91.44       
C           14.54       34.3        91.71       
C           14.34       35.38       90.95       
C           15.06       35.69       89.77       
C           19.03       34.14       82.53       
C           19.79       33.11       82.08       
C           20.28       32.23       83.05       
C           19.97       32.33       84.43       
C           16.71       31.05       89.27       
C           18.45       32.51       90.5        
C           16.45       35.64       83.95       
C           18.67       36.73       84.72       
H           16.32       36.18       86.99       
H           18.82       31.89       87.34       
H           18.65       34.93       81.86       
H           20.3        31.56       85.11       
H           15.62       32.41       92.06       
H           14.86       36.65       89.23       
H           17.56       30.56       88.77       
H           16.68       30.65       90.26       
H           15.75054    30.97786    88.75781    
H           18.78       33.55       90.59       
H           18.12       32.21       91.53       
H           19.27319    31.8586     90.20651    
H           18.14       37.46       85.37       
H           19.55       36.46       85.23       
H           18.93878    37.17313    83.7611     
H           15.84       36.07       84.71       
H           16.56       36.26       83.03       
H           15.92599    34.6982     83.78713    
H           13.62       33.26       93.42       
H           20.08       33.3        79.91       
S           12.94       36.29       91.61       
C           13.57       34.09       92.7        
C           12.67       35.09       92.8        
C           23.58       29.88       77.62       
C           23.26       31.29       77.57       
C           23.22       29.22       78.77       
N           23.53       32.08       76.51       
N           22.04       33.15       78.23       
S           22.78       33.53       76.79       
H           22.21       29.34       80.7        
H           23.53       28.19       79.0        
C           22.51       29.91       79.81       
C           22.45       31.93       78.56       
C           22.14       31.25       79.81       
C           30.92       19.35       66.93       
C           30.26       19.01       68.13       
S           30.81       21.1        66.68       
C           27.76       23.04       71.81       
C           28.47       23.61       70.72       
C           28.58       24.97       70.65       
C           27.84       25.75       71.56       
C           27.11       25.19       72.64       
C           27.08       23.81       72.76       
C           27.73       27.28       71.64       
C           27.1        27.4        73.03       
C           26.59       26.24       73.49       
C           27.83       21.51       71.74       
C           28.87       21.32       70.6        
C           29.03       22.55       69.92       
C           26.69       28.64       73.72       
C           25.83       28.54       74.87       
C           25.37       27.29       75.32       
C           25.72       26.15       74.65       
C           29.34       20.18       70.08       
C           29.85       20.18       68.84       
C           30.0        21.4        68.19       
C           29.59       22.6        68.68       
C           29.15       27.94       71.64       
C           26.89       27.94       70.52       
C           28.32       20.99       73.13       
C           26.39       21.0        71.36       
H           26.58       23.43       73.64       
H           29.17       25.52       69.88       
H           29.23       19.24       70.77       
H           29.71       23.6        68.12       
H           27.03       29.58       73.38       
H           25.32       25.22       74.99       
H           29.61       27.75       70.66       
H           29.12       28.98       71.8        
H           29.77607    27.54097    72.43807    
H           27.64       28.46       69.9        
H           26.14       28.63       70.95       
H           26.38447    27.20978    69.88808    
H           25.8        21.17       72.22       
H           25.83       21.48       70.56       
H           26.39       19.92267    71.19426    
H           27.52       21.11       73.85       
H           28.44       19.9        73.03       
H           29.22327    21.51926    73.43344    
H           25.28       30.64       75.42       
H           30.19       18.02       68.59       
S           24.23       27.42       76.63       
C           25.19       29.57       75.69       
C           24.38       29.15       76.66       
C           33.05       17.2        63.66       
C           32.68       16.49       64.82       
C           32.71       18.55       63.64       
N           32.91       15.18       65.11       
N           31.6        16.36       66.95       
S           32.19       14.9        66.57       
H           31.6        20.18       64.44       
H           32.87       19.16       62.8        
C           31.92       19.18       64.7        
C           31.98       17.18       65.9        
C           31.64       18.54       65.9        
C           40.2        8.19        52.14       
C           39.23       9.07        51.71       
S           40.74       8.44        53.74       
C           37.21       13.29       55.72       
C           38.33       12.47       56.13       
C           38.83       12.56       57.42       
C           38.24       13.43       58.33       
C           37.04       14.08       57.99       
C           36.46       14.03       56.67       
C           38.47       13.7        59.84       
C           37.21       14.42       60.26       
C           36.47       14.83       59.14       
C           36.88       12.97       54.28       
C           37.86       11.83       53.94       
C           38.8        11.64       54.97       
C           36.76       14.68       61.54       
C           35.68       15.48       61.7        
C           34.96       15.9        60.56       
C           35.31       15.55       59.26       
C           37.87       10.96       52.84       
C           38.86       9.95        52.79       
C           39.71       9.76        53.92       
C           39.76       10.64       55.01       
C           38.7        12.28       60.52       
C           39.66       14.76       59.94       
C           35.44       12.36       54.3        
C           37.08       14.13       53.3        
H           35.54       14.46       56.46       
H           39.63       11.89       57.75       
H           37.24       11.23       51.96       
H           40.36       10.43       55.91       
H           37.15       14.06       62.37       
H           34.7        15.9        58.38       
H           39.56       11.77       60.03       
H           37.77       11.71       60.41       
H           39.04867    12.22915    61.55148    
H           39.38       15.63       59.38       
H           39.75       15.3        60.94       
H           40.62007    14.42821    59.54468    
H           36.38       13.96       52.47       
H           38.08       14.26       52.95       
H           36.83291    15.09719    53.73771    
H           34.64       13.03       54.78       
H           34.96       12.19       53.36       
H           35.43301    11.45094    54.90138    
H           35.38       15.58       63.83       
H           38.69       8.92        50.83       
S           33.52       16.74       61.01       
C           35.04       15.86       62.89       
C           33.94       16.64       62.71       
C           42.23       4.82        50.08       
C           41.39       5.66        49.3        
C           42.32       5.14        51.43       
N           41.12       5.53        47.97       
N           39.99       7.49        49.12       
S           40.1        6.84        47.62       
H           41.86       6.34        53.04       
H           43.05       4.61        52.04       
C           41.72       6.26        52.02       
C           40.71       6.76        49.97       
C           40.86       7.09        51.36       
C           52.09       -8.4        47.88       
C           51.53       -8.06       49.09       
S           51.71       -7.19       46.62       
C           48.04       -3.3        49.93       
C           48.59       -3.37       48.69       
C           48.45       -2.39       47.74       
C           47.46       -1.45       47.96       
C           46.93       -1.23       49.26       
C           47.34       -2.12       50.25       
C           46.73       -0.54       46.91       
C           45.98       0.41        47.89       
C           45.98       -0.15       49.18       
C           48.1        -4.66       50.6        
C           49.33       -5.19       49.85       
C           49.45       -4.52       48.62       
C           45.23       1.5         47.67       
C           44.59       2.11        48.68       
C           44.51       1.51        49.96       
C           45.21       0.34        50.25       
C           49.96       -6.38       50.07       
C           50.65       -6.94       49.0        
C           50.72       -6.26       47.73       
C           50.22       -4.97       47.51       
C           47.65       0.41        46.1        
C           45.73       -1.31       46.0        
C           48.28       -4.39       52.16       
C           46.83       -5.53       50.19       
H           46.85       -2.05       51.22       
H           48.98       -2.44       46.84       
H           49.93       -6.91       51.01       
H           50.24       -4.43       46.53       
H           44.94       1.87        46.7        
H           45.14       -0.14       51.24       
H           48.25       -0.27       45.37       
H           47.1        1.07        45.45       
H           48.27391    1.00555     46.76645    
H           45.13       -1.89       46.72       
H           45.13       -0.71       45.32       
H           46.24531    -2.07581    45.42027    
H           46.7        -6.43       50.88       
H           46.86       -5.9        49.2        
H           45.86963    -5.02863    50.31005    
H           47.4        -3.87       52.53       
H           48.44       -5.29       52.78       
H           49.12304    -3.72407    52.34419    
H           43.62       3.89        47.71       
H           51.75       -8.54       50.01       
S           43.43       2.46        50.92       
C           43.71       3.26        48.59       
C           43.16       3.72        49.71       
C           55.29       -11.57      47.54       
C           54.58       -11.12      46.39       
C           54.7        -11.04      48.63       
N           54.87       -11.48      45.18       
N           53.19       -9.62       45.23       
S           54.13       -10.41      44.13       
H           53.42       -9.63       49.67       
H           55.2        -11.21      49.62       
C           53.71       -9.99       48.74       
C           53.53       -10.08      46.43       
C           53.06       -9.51       47.65       
C           70.67       -7.92       48.03       
C           69.98       -8.15       49.19       
S           70.02       -8.94       46.77       
C           64.57       -10.92      49.29       
C           65.3        -11.09      48.05       
C           64.73       -11.69      46.94       
C           63.34       -12.04      47.06       
C           62.65       -11.86      48.3        
C           63.29       -11.33      49.45       
C           62.47       -12.75      46.01       
C           61.1        -12.66      46.71       
C           61.28       -12.3       48.1        
C           65.38       -10.14      50.35       
C           66.72       -9.96       49.6        
C           66.61       -10.49      48.24       
C           59.91       -13.03      46.18       
C           58.84       -12.8       47.0        
C           58.98       -12.39      48.35       
C           60.22       -12.24      48.98       
C           67.85       -9.29       50.03       
C           68.79       -8.92       49.05       
C           68.65       -9.38       47.7        
C           67.55       -10.22      47.3        
C           62.6        -12.17      44.54       
C           62.92       -14.31      45.96       
C           64.76       -8.77       50.75       
C           65.55       -11.02      51.59       
H           62.8        -11.31      50.39       
H           65.33       -11.72      45.99       
H           67.94       -8.85       51.0        
H           67.43       -10.48      46.23       
H           59.71       -13.23      45.14       
H           60.2        -11.95      50.0        
H           62.31       -12.96      43.89       
H           63.59       -12.11      44.22       
H           62.1277     -11.21825   44.29669    
H           62.93       -14.75      46.97       
H           62.15       -14.84      45.35       
H           63.92848    -14.41883   45.56096    
H           64.57       -11.38      51.95       
H           65.96       -11.94      51.19       
H           66.05669    -10.61601   52.46644    
H           65.41       -8.31       51.44       
H           63.82       -8.95       51.14       
H           64.6526     -8.08978    49.90509    
H           57.19       -12.78      45.58       
H           70.13       -7.5        50.09       
S           57.42       -12.34      49.14       
C           57.43       -12.73      46.63       
C           56.58       -12.25      47.6        
C           73.66       -4.76       47.23       
C           73.68       -5.53       48.47       
C           72.65       -5.15       46.31       
N           74.6        -5.43       49.38       
N           72.78       -6.94       50.01       
S           74.06       -6.19       50.69       
H           71.01       -6.4        45.95       
H           72.44       -4.71       45.37       
C           71.82       -6.24       46.68       
C           72.67       -6.48       48.79       
C           71.79       -7.0        47.8        
C           84.21       3.74        37.9        
C           82.81       3.72        37.67       
S           84.64       2.76        39.29       
C           79.04       1.21        41.85       
C           80.46       1.06        42.07       
C           80.92       0.34        43.2        
C           79.94       -0.23       44.05       
C           78.62       -0.13       43.74       
C           78.12       0.6         42.67       
C           80.09       -1.12       45.27       
C           78.74       -1.7        45.42       
C           77.8        -1.02       44.52       
C           78.85       1.98        40.51       
C           80.27       2.16        39.97       
C           81.19       1.66        41.0        
C           78.27       -2.61       46.32       
C           76.81       -2.81       46.37       
C           75.96       -2.06       45.46       
C           76.46       -1.17       44.54       
C           80.75       2.95        38.9        
C           82.09       3.05        38.72       
C           82.99       2.45        39.71       
C           82.56       1.81        40.85       
C           81.09       -2.26       45.03       
C           80.39       -0.4        46.63       
C           77.92       1.04        39.6        
C           78.21       3.41        40.72       
H           77.09       0.5         42.38       
H           81.96       0.16        43.34       
H           80.14       3.15        38.04       
H           83.24       1.3         41.5        
H           78.88       -3.27       46.95       
H           75.83       -0.56       43.95       
H           82.05       -1.8        45.03       
H           81.14       -2.87       45.98       
H           80.92412    -2.81533    44.10686    
H           79.55       0.21        46.99       
H           80.53       -1.06       47.52       
H           81.1876     0.34211     46.59532    
H           78.08       3.94        39.8        
H           78.94       4.0         41.21       
H           77.28943    3.44596     41.30255    
H           77.07       0.66        40.17       
H           77.56       1.62        38.7        
H           78.46753    0.18752     39.19802    
H           76.47       -4.67       47.64       
H           82.33       4.18        36.86       
S           74.25       -2.49       45.72       
C           76.08       -3.8        47.12       
C           74.74       -3.85       46.75       
C           87.66       5.37        35.51       
C           86.24       5.69        35.22       
C           87.8        4.56        36.57       
N           85.83       6.46        34.21       
N           83.91       5.47        35.47       
S           84.23       6.4         34.14       
H           87.0        3.71        38.25       
H           88.76       4.29        36.87       
C           86.7        4.19        37.35       
C           85.14       5.17        35.97       
C           85.35       4.37        37.15       
C           97.8        15.44       27.29       
C           96.49       15.53       27.45       
S           98.44       14.11       28.25       
C           93.17       11.84       30.82       
C           94.54       11.47       30.7        
C           95.01       10.28       31.36       
C           94.18       9.55        32.19       
C           92.83       9.94        32.27       
C           92.34       11.07       31.63       
C           94.29       8.14        32.73       
C           92.85       7.83        33.27       
C           92.06       8.96        33.05       
C           92.73       12.89       29.8        
C           94.17       13.3        29.37       
C           95.22       12.41       29.83       
C           92.36       6.72        33.84       
C           91.02       6.75        34.33       
C           90.23       7.9         34.15       
C           90.75       8.97        33.45       
C           94.54       14.32       28.55       
C           95.92       14.48       28.26       
C           96.88       13.55       28.67       
C           96.55       12.5        29.5        
C           94.64       7.02        31.67       
C           95.21       8.15        33.96       
C           91.81       12.24       28.81       
C           92.06       14.04       30.57       
H           91.25       11.26       31.62       
H           96.05       10.06       31.22       
H           93.82       14.97       28.14       
H           97.34       11.88       29.97       
H           92.96       5.83        33.99       
H           90.14       9.82        33.11       
H           95.56       7.43        31.23       
H           94.79       6.07        32.17       
H           93.93401    6.96237     30.84154    
H           94.84       8.96        34.49       
H           95.19       7.11        34.48       
H           96.26364    8.33636     33.75214    
H           91.06       13.63       30.83       
H           91.81       14.94       29.89       
H           92.62178    14.31369    31.46308    
H           90.82       12.02       29.18       
H           92.25       11.23       28.61       
H           91.83089    12.7134     27.82839    
H           90.41       4.71        35.07       
H           95.8        16.3        27.06       
S           88.58       7.78        34.76       
C           90.1        5.73        34.86       
C           88.78       6.05        34.97       
C           100.25      18.84       25.66       
C           100.88      17.68       26.2        
C           98.87       18.81       25.82       
N           102.16      17.49       26.27       
N           100.93      15.52       27.06       
S           102.45      16.04       27.13       
H           97.1        17.74       26.17       
H           98.21       19.59       25.41       
C           98.16       17.75       26.37       
C           100.1       16.53       26.68       
C           98.67       16.56       26.8        
C           104.06      33.05       18.56       
C           102.81      32.53       18.88       
S           105.31      32.09       19.34       
C           101.79      27.69       22.4        
C           103.13      28.04       22.21       
C           104.21      27.29       22.75       
C           103.81      26.07       23.43       
C           102.45      25.8        23.61       
C           101.4       26.64       23.16       
C           104.62      24.79       23.82       
C           103.55      23.88       24.42       
C           102.29      24.49       24.19       
C           100.92      28.65       21.61       
C           101.92      29.6        21.0        
C           103.22      29.24       21.41       
C           103.62      22.6        24.84       
C           102.42      21.84       24.94       
C           101.18      22.49       24.74       
C           101.14      23.84       24.5        
C           101.74      30.73       20.22       
C           102.85      31.44       19.71       
C           104.14      31.07       20.18       
C           104.29      29.99       21.04       
C           105.27      24.19       22.57       
C           105.68      25.32       24.84       
C           100.08      27.77       20.59       
C           99.94       29.48       22.46       
H           100.39      26.38       23.23       
H           105.31      27.6        22.64       
H           100.72      31.06       19.86       
H           105.3       29.56       21.29       
H           104.59      22.07       25.16       
H           100.19      24.27       24.28       
H           105.95      24.9        22.04       
H           104.53      23.89       21.8        
H           105.87653   23.29431    22.704      
H           106.18      26.2        24.38       
H           106.41      24.53       25.08       
H           105.31841   25.69577    25.79716    
H           99.12       28.84       22.75       
H           99.65       30.28       21.71       
H           100.35297   30.03787    23.30043    
H           99.03       27.73       20.76       
H           100.5       26.71       20.67       
H           100.24349   27.96903    19.53087    
H           102.87      19.76       25.63       
H           101.91      32.89       18.41       
S           99.83       21.37       24.78       
C           102.17      20.45       25.26       
C           100.85      20.03       25.13       
C           105.01      36.07       15.5        
C           103.88      36.23       16.36       
C           105.81      35.03       15.91       
N           102.92      37.17       16.23       
N           102.37      35.47       18.01       
S           101.89      36.92       17.44       
H           106.07      33.12       16.93       
H           106.71      34.72       15.43       
C           105.49      34.01       16.91       
C           103.53      35.25       17.37       
C           104.4       34.14       17.7        
C           107.08      42.71       0.61        
C           106.36      43.41       1.58        
S           107.75      41.27       1.37        
C           105.95      41.61       7.35        
C           106.8       40.89       6.5         
C           107.37      39.72       6.91        
C           106.97      39.14       8.1         
C           106.19      39.88       8.97        
C           105.7       41.17       8.63        
C           107.38      37.78       8.66        
C           106.78      37.92       10.05       
C           106.09      39.16       10.22       
C           105.44      42.87       6.58        
C           106.0       42.62       5.24        
C           106.88      41.54       5.2         
C           106.98      37.06       11.08       
C           106.28      37.24       12.26       
C           105.64      38.49       12.45       
C           105.44      39.44       11.4        
C           105.83      43.29       4.05        
C           106.38      42.81       2.87        
C           107.09      41.6        2.91        
C           107.51      41.05       4.09        
C           106.68      36.59       7.92        
C           108.86      37.54       8.92        
C           103.86      42.83       6.44        
C           105.95      44.18       7.15        
H           105.15      41.8        9.29        
H           108.0       39.33       6.19        
H           105.26      44.23       3.99        
H           108.19      40.21       4.12        
H           107.57      36.11       10.92       
H           104.87      40.36       11.6        
H           107.2       36.51       6.9         
H           106.87      35.69       8.53        
H           105.60989   36.73314    7.77005     
H           109.15      38.46       9.49        
H           108.96      36.79       9.56        
H           109.5644    37.48421    8.09006     
H           105.79      44.96       6.47        
H           107.05      44.15       7.4         
H           105.44735   44.47734    8.07034     
H           103.38      42.89       7.42        
H           103.49      43.63       5.77        
H           103.57072   41.89865    5.95316     
H           106.75      35.31       13.39       
H           105.94      44.4        1.36        
S           104.89      38.53       14.01       
C           106.24      36.32       13.37       
C           105.36      36.81       14.28       
C           108.45      44.15       -3.36       
C           108.31      42.76       -3.07       
C           108.17      44.92       -2.25       
N           108.45      41.76       -3.94       
N           107.72      40.86       -1.77       
S           108.18      40.37       -3.23       
H           107.46      45.13       -0.26       
H           108.33      45.99       -2.27       
C           107.67      44.4        -1.02       
C           107.91      42.2        -1.82       
C           107.51      43.07       -0.74       
C           120.74      52.45       -10.67      
C           120.81      51.23       -10.1       
S           119.12      53.04       -10.41      
C           116.08      47.97       -7.7        
C           115.83      49.23       -8.2        
C           114.52      49.68       -8.27       
C           113.52      48.87       -7.81       
C           113.77      47.61       -7.31       
C           115.08      47.1        -7.19       
C           112.03      49.16       -7.76       
C           111.44      47.91       -7.02       
C           112.54      47.0        -6.81       
C           117.59      47.62       -7.9        
C           118.08      48.94       -8.6        
C           117.03      49.88       -8.65       
C           110.14      47.61       -6.54       
C           110.03      46.41       -5.83       
C           111.03      45.45       -5.87       
C           112.35      45.7        -6.43       
C           119.35      49.34       -9.03       
C           119.64      50.65       -9.48       
C           118.56      51.52       -9.63       
C           117.27      51.14       -9.25       
C           111.84      50.47       -6.96       
C           111.35      49.27       -9.15       
C           118.29      47.27       -6.62       
C           117.71      46.49       -8.94       
H           115.32      46.21       -6.61       
H           114.36      50.68       -8.58       
H           120.18      48.61       -8.97       
H           116.45      51.79       -9.58       
H           109.34      48.33       -6.66       
H           113.17      45.04       -6.52       
H           112.03      51.28       -7.71       
H           112.66      50.66       -6.29       
H           110.91127   50.54256    -6.39405    
H           111.92      49.93       -9.87       
H           110.43      49.8        -8.93       
H           111.20131   48.29998    -9.62439    
H           117.74      45.48       -8.6        
H           118.6       46.68       -9.49       
H           116.95142   46.61282    -9.71303    
H           118.1       46.26       -6.27       
H           119.38      47.33       -6.87       
H           118.17722   47.98192    -5.80235    
H           107.91      46.66       -4.82       
H           121.71      50.64       -10.31      
S           110.51      44.0        -5.03       
C           108.9       46.03       -5.01       
C           109.08      44.76       -4.45       
C           123.65      54.55       -13.03      
C           123.58      53.14       -13.14      
C           122.73      55.18       -12.24      
N           124.35      52.33       -13.87      
N           122.82      51.1        -12.39      
S           123.95      50.76       -13.52      
H           120.86      55.08       -11.14      
H           122.68      56.23       -12.32      
C           121.65      54.47       -11.65      
C           122.61      52.41       -12.34      
C           121.62      53.1        -11.56      
H           11.7        34.97       93.33       
H           124.64      54.97       -13.34      
