612

C           68.77       24.54       24.16       
C           68.41       23.5        24.97       
S           70.32       24.17       23.51       
C           72.26       18.84       26.31       
C           72.81       19.87       25.5        
C           74.08       19.8        24.94       
C           74.75       18.53       25.07       
C           74.18       17.52       25.8        
C           72.96       17.69       26.53       
C           76.01       18.05       24.26       
C           76.15       16.61       24.78       
C           75.09       16.37       25.68       
C           70.98       19.42       26.98       
C           70.64       20.61       26.06       
C           71.78       20.93       25.3        
C           77.1        15.7        24.44       
C           77.08       14.41       25.06       
C           75.99       14.15       25.93       
C           74.97       15.06       26.27       
C           69.51       21.36       26.1        
C           69.46       22.56       25.24       
C           70.63       22.81       24.5        
C           71.85       22.07       24.55       
C           75.76       18.11       22.7        
C           77.36       18.74       24.62       
C           69.89       18.32       26.76       
C           71.07       19.88       28.46       
H           72.68       17.0        27.33       
H           74.44       20.52       24.24       
H           68.68       21.11       26.72       
H           72.7        22.26       23.91       
H           77.91       15.99       23.75       
H           74.16       14.81       26.98       
H           75.69       19.13       22.44       
H           76.62       17.74       22.12       
H           74.80184    17.71803    22.35884    
H           77.61       18.36       25.64       
H           78.1        18.27       24.05       
H           77.38864    19.82847    24.56987    
H           70.12       19.76       28.91       
H           71.27       20.92       28.35       
H           71.85613    19.36072    29.00813    
H           70.03       17.5        27.43       
H           68.92       18.8        27.06       
H           69.74874    17.86797    25.77826    
H           78.96       13.29       24.39       
H           67.43       23.4        25.48       
S           76.16       12.54       26.53       
C           78.02       13.32       24.96       
C           77.68       12.23       25.71       
C           67.12       28.46       23.03       
C           66.24       27.35       22.94       
C           68.41       28.17       23.3        
N           64.93       27.43       22.72       
N           65.73       25.13       23.58       
S           64.36       25.97       23.02       
H           69.95       26.7        23.68       
H           69.2        28.96       23.18       
C           68.9        26.85       23.56       
C           66.69       26.03       23.4        
C           68.08       25.79       23.73       
C           64.54       44.63       20.43       
C           65.49       44.15       21.31       
S           63.9        43.29       19.48       
C           66.8        38.28       22.05       
C           65.79       38.56       21.12       
C           64.96       37.59       20.52       
C           65.24       36.27       20.88       
C           66.3        35.96       21.81       
C           67.01       36.97       22.45       
C           64.66       35.02       20.2        
C           65.15       33.96       21.21       
C           66.18       34.53       22.03       
C           67.47       39.53       22.59       
C           66.65       40.66       21.88       
C           65.74       39.98       20.95       
C           64.92       32.62       21.12       
C           65.73       31.74       21.88       
C           66.77       32.3        22.64       
C           67.01       33.69       22.76       
C           66.64       42.02       22.04       
C           65.74       42.75       21.27       
C           64.93       42.09       20.36       
C           64.88       40.71       20.13       
C           63.09       35.06       20.16       
C           65.15       34.82       18.66       
C           67.28       39.66       24.16       
C           68.96       39.69       22.21       
H           67.67       36.69       23.31       
H           64.24       37.83       19.71       
H           67.15       42.47       22.86       
H           64.25       40.3        19.41       
H           64.05       32.23       20.65       
H           67.84       34.08       23.25       
H           62.7        34.13       19.74       
H           62.78       35.92       19.47       
H           62.63793    35.3542     21.10719    
H           64.75       35.67       18.07       
H           64.6        34.0        18.23       
H           66.23149    34.73962    18.55039    
H           69.21       40.67       22.45       
H           69.13       39.58       21.13       
H           69.66393    39.01423    22.69571    
H           67.73       38.75       24.51       
H           68.04       40.43       24.5        
H           66.25309    39.76697    24.50944    
H           65.06       29.67       21.53       
H           65.99       44.84       22.03       
S           67.65       31.06       23.49       
C           65.74       30.32       22.01       
C           66.76       29.82       22.69       
C           63.08       48.78       20.27       
C           62.57       47.79       19.43       
C           64.04       48.32       21.12       
N           61.58       47.95       18.59       
N           62.44       45.62       18.59       
S           61.39       46.53       17.71       
H           65.31       46.85       21.86       
H           64.54       48.96       21.78       
C           64.47       46.94       21.2        
C           63.02       46.39       19.48       
C           64.0        45.91       20.41       
C           61.44       64.97       18.63       
C           62.37       64.44       19.44       
S           60.2        63.81       18.18       
C           62.38       58.65       21.06       
C           61.27       59.09       20.32       
C           60.41       58.24       19.75       
C           60.6        56.89       19.94       
C           61.69       56.38       20.68       
C           62.58       57.29       21.29       
C           59.68       55.73       19.52       
C           60.61       54.55       19.83       
C           61.71       54.94       20.58       
C           63.37       59.84       21.39       
C           62.58       61.01       20.75       
C           61.48       60.5        20.05       
C           60.43       53.14       19.63       
C           61.41       52.22       20.01       
C           62.56       52.7        20.66       
C           62.64       54.05       21.09       
C           62.96       62.3        20.63       
C           62.19       63.07       19.83       
C           61.0        62.56       19.2        
C           60.58       61.27       19.33       
C           58.34       55.79       20.28       
C           59.37       55.79       17.98       
C           63.46       59.94       22.95       
C           64.78       59.67       20.71       
H           63.35       56.92       21.84       
H           59.64       58.59       19.06       
H           63.84       62.7        21.04       
H           59.73       60.9        18.88       
H           59.53       52.75       19.22       
H           63.5        54.32       21.72       
H           57.56       55.4        19.61       
H           58.08       56.82       20.61       
H           58.31155    55.14996    21.16184    
H           58.96       56.79       17.89       
H           58.61       55.02       17.7        
H           60.27286    55.71946    17.37339    
H           65.26       60.59       20.64       
H           64.67       59.37       19.71       
H           65.44855    58.95369    21.18754    
H           63.52       58.93       23.33       
H           64.32       60.49       23.2        
H           62.57064    60.41337    23.36599    
H           60.68       50.31       19.32       
H           63.31       64.93       19.64       
S           63.64       51.36       20.98       
C           61.46       50.8        19.85       
C           62.61       50.18       20.33       
C           61.07       69.09       17.15       
C           62.35       68.55       17.41       
C           60.09       68.26       17.43       
N           63.52       69.19       17.23       
N           63.73       66.76       17.97       
S           64.68       68.07       17.58       
H           59.25       66.34       18.0        
H           59.06       68.62       17.3        
C           60.2        66.9        17.77       
C           62.47       67.13       17.88       
C           61.38       66.28       18.01       
C           53.64       81.12       8.87        
C           54.53       80.24       8.24        
S           53.75       80.95       10.66       
C           57.81       76.0        11.23       
C           57.08       76.9        11.98       
C           56.91       76.81       13.33       
C           57.58       75.78       13.97       
C           58.36       74.81       13.23       
C           58.36       74.86       11.79       
C           57.29       75.3        15.4        
C           58.41       74.21       15.45       
C           58.87       73.86       14.17       
C           57.62       76.35       9.75        
C           56.72       77.63       9.87        
C           56.4        77.89       11.19       
C           58.62       73.31       16.49       
C           59.49       72.27       16.27       
C           60.05       72.08       15.01       
C           59.72       72.82       13.88       
C           56.18       78.4        8.88        
C           55.21       79.37       9.18        
C           54.87       79.59       10.53       
C           55.5        78.87       11.52       
C           57.61       76.32       16.49       
C           55.93       74.72       15.7        
C           59.06       76.58       9.1         
C           56.9        75.25       8.98        
H           58.92       74.12       11.22       
H           56.31       77.57       13.91       
H           56.32       78.16       7.85        
H           55.15       78.95       12.55       
H           58.1        73.44       17.43       
H           60.03       72.49       12.84       
H           57.06       77.25       16.4        
H           57.33       76.0        17.52       
H           58.67513    76.54875    16.45426    
H           55.69       73.87       15.03       
H           55.9        74.28       16.73       
H           55.1032     75.38144    15.44117    
H           57.53       74.38       8.77        
H           56.48       75.54       7.92        
H           55.92866    75.04588    9.43048     
H           59.53       75.65       9.1         
H           58.93       76.81       8.11        
H           59.6415     77.3777     9.56222     
H           59.38       71.11       18.19       
H           54.85       80.34       7.19        
S           61.07       70.6        14.92       
C           59.84       71.22       17.15       
C           60.69       70.32       16.59       
C           50.19       83.09       7.1         
C           50.67       83.49       8.41        
C           50.94       82.11       6.44        
N           50.05       84.39       9.23        
N           52.11       83.44       10.19       
S           50.95       84.51       10.62       
H           52.66       80.77       6.46        
H           50.63       81.67       5.52        
C           52.15       81.58       6.98        
C           51.88       82.94       8.97        
C           52.57       81.89       8.22        
C           35.01       83.15       0.34        
C           36.01       82.27       0.21        
S           35.53       84.54       1.16        
C           41.61       82.89       2.45        
C           40.77       83.96       2.75        
C           41.24       84.97       3.57        
C           42.48       84.84       4.23        
C           43.31       83.74       3.89        
C           42.89       82.76       2.94        
C           43.24       85.85       5.15        
C           44.48       85.0        5.5         
C           44.53       83.87       4.66        
C           40.9        81.87       1.49        
C           39.53       82.44       1.5         
C           39.5        83.75       2.05        
C           45.55       85.13       6.38        
C           46.71       84.33       6.16        
C           46.71       83.31       5.24        
C           45.57       82.96       4.54        
C           38.49       81.95       0.83        
C           37.25       82.67       0.73        
C           37.15       83.92       1.29        
C           38.3        84.46       2.03        
C           43.72       87.1        4.35        
C           42.59       86.14       6.55        
C           41.53       81.77       0.07        
C           41.0        80.43       2.15        
H           43.64       82.06       2.64        
H           40.62       85.85       3.73        
H           38.53       81.0        0.34        
H           38.18       85.45       2.5         
H           45.42       85.72       7.26        
H           45.45       82.16       3.89        
H           42.97       87.76       3.84        
H           44.21       87.72       5.06        
H           44.49247    86.85681    3.62044     
H           42.54       85.2        7.17        
H           43.46       86.57       7.01        
H           41.66988    86.72184    6.49588     
H           42.07       80.21       2.21        
H           40.55       79.72       1.49        
H           40.47295    80.31604    3.09727     
H           42.49       81.38       0.14        
H           40.97       81.08       -0.59       
H           41.59204    82.7488     -0.40561    
H           48.06       84.89       7.83        
H           35.88       81.34       -0.31       
S           48.3        82.47       5.27        
C           47.97       84.32       6.94        
C           48.92       83.46       6.53        
C           30.8        82.03       -0.24       
C           31.11       83.38       -0.31       
C           31.88       81.24       -0.03       
N           30.23       84.35       -0.58       
N           32.61       85.21       -0.38       
S           31.13       85.75       -0.74       
H           33.9        80.85       0.41        
H           31.76       80.18       0.11        
C           33.17       81.67       0.17        
C           32.46       83.86       -0.2        
C           33.58       82.97       0.07        
C           15.94       75.71       -3.34       
C           16.99       74.87       -3.28       
S           16.26       77.2        -2.46       
C           22.36       76.95       -1.0        
C           21.26       77.82       -0.91       
C           21.45       79.14       -0.41       
C           22.78       79.47       -0.1        
C           23.82       78.61       -0.12       
C           23.61       77.34       -0.59       
C           23.27       80.95       0.16        
C           24.76       80.75       0.11        
C           25.03       79.35       0.16        
C           21.97       75.7        -1.81       
C           20.45       75.84       -1.86       
C           20.08       77.1        -1.36       
C           25.74       81.68       0.09        
C           27.07       81.33       -0.02       
C           27.4        79.97       -0.08       
C           26.41       79.02       0.05        
C           19.49       75.04       -2.43       
C           18.2        75.46       -2.72       
C           17.88       76.78       -2.17       
C           18.79       77.58       -1.5        
C           22.92       81.9        -1.05       
C           22.97       81.55       1.59        
C           22.42       75.61       -3.29       
C           22.21       74.35       -1.11       
H           24.46       76.69       -0.74       
H           20.57       79.77       -0.31       
H           19.74       74.05       -2.69       
H           18.61       78.59       -1.15       
H           25.49       82.7        -0.02       
H           26.65       77.93       0.03        
H           21.83       82.07       -1.23       
H           23.34       82.82       -0.92       
H           23.28898    81.59488    -2.02921    
H           23.31       80.89       2.4         
H           23.51       82.47       1.86        
H           21.91103    81.65085    1.82773     
H           23.29       74.19       -0.96       
H           21.8        73.55       -1.67       
H           21.74624    74.35       -0.12358    
H           23.47       75.55       -3.27       
H           22.13       74.69       -3.76       
H           22.2555     76.4897     -3.91223    
H           28.17       83.28       -0.04       
H           16.95       73.85       -3.62       
S           29.15       79.85       -0.27       
C           28.22       82.22       -0.13       
C           29.38       81.59       -0.23       
C           11.77       75.39       -4.37       
C           12.58       74.23       -4.31       
C           12.33       76.57       -4.12       
N           12.1        73.03       -4.6        
N           14.59       73.07       -3.97       
S           13.42       72.01       -4.43       
H           14.13       77.68       -3.81       
H           11.74       77.51       -4.15       
C           13.74       76.64       -3.84       
C           13.98       74.32       -4.0        
C           14.57       75.55       -3.72       
C           -4.12       79.53       -4.73       
C           -3.05       80.26       -5.24       
S           -3.64       78.01       -4.04       
C           2.64        78.44       -5.13       
C           1.73        77.43       -4.68       
C           2.09        76.11       -4.28       
C           3.45        75.86       -4.31       
C           4.33        76.82       -4.72       
C           3.95        78.12       -5.26       
C           4.12        74.54       -3.81       
C           5.62        74.88       -4.1        
C           5.69        76.26       -4.56       
C           1.99        79.73       -5.56       
C           0.59        79.4        -5.18       
C           0.42        78.1        -4.6        
C           6.78        74.14       -3.9        
C           8.0         74.79       -4.29       
C           7.99        76.07       -4.81       
C           6.87        76.84       -4.83       
C           -0.54       80.17       -5.44       
C           -1.83       79.57       -5.07       
C           -1.97       78.31       -4.48       
C           -0.83       77.54       -4.3        
C           3.89        74.33       -2.32       
C           3.82        73.27       -4.69       
C           2.71        80.97       -4.78       
C           2.11        79.92       -7.07       
H           4.73        78.8        -5.65       
H           1.41        75.42       -3.89       
H           -0.41       81.26       -5.73       
H           -0.87       76.53       -3.91       
H           6.77        73.23       -3.45       
H           6.88        77.87       -5.01       
H           2.82        74.3        -2.11       
H           4.23        73.32       -2.02       
H           4.37611     75.02342    -1.63373    
H           3.88        73.33       -5.75       
H           4.56        72.58       -4.33       
H           2.77156     72.98078    -4.61769    
H           3.15        80.0        -7.32       
H           1.7         79.09       -7.65       
H           1.55053     80.74522    -7.51058    
H           2.84        81.8        -5.51       
H           3.79        80.84       -4.52       
H           2.1078      81.28579    -3.9281     
H           9.65        73.48       -3.5        
H           -3.18       81.28       -5.59       
S           9.6         76.65       -5.25       
C           9.38        74.35       -4.07       
C           10.3        75.28       -4.5        
C           -8.21       79.84       -6.04       
C           -7.96       79.17       -4.83       
C           -7.09       80.45       -6.58       
N           -8.88       78.65       -4.0        
N           -6.46       78.47       -3.1        
S           -8.05       77.96       -2.79       
H           -5.01       80.75       -6.75       
H           -7.22       80.81       -7.61       
C           -5.8        80.35       -6.11       
C           -6.6        79.18       -4.28       
C           -5.5        79.76       -4.98       
C           -18.61      78.55       -18.92      
C           -17.52      79.34       -18.82      
S           -18.68      77.53       -17.49      
C           -13.97      79.85       -13.9       
C           -14.87      78.81       -13.85      
C           -15.01      78.05       -12.68      
C           -14.29      78.47       -11.53      
C           -13.36      79.53       -11.64      
C           -13.12      80.14       -12.86      
C           -14.36      77.92       -10.07      
C           -13.22      78.65       -9.45       
C           -12.67      79.65       -10.36      
C           -14.08      80.61       -15.16      
C           -15.16      79.87       -15.96      
C           -15.62      78.86       -15.13      
C           -12.65      78.53       -8.2        
C           -11.45      79.26       -7.83       
C           -11.0       80.24       -8.72       
C           -11.59      80.51       -9.93       
C           -15.58      79.89       -17.27      
C           -16.74      79.18       -17.67      
C           -17.29      78.26       -16.76      
C           -16.73      78.05       -15.5       
C           -15.74      78.22       -9.44       
C           -13.92      76.43       -10.03      
C           -14.58      82.0        -14.84      
C           -12.75      80.45       -15.99      
H           -12.48      81.03       -12.93      
H           -15.82      77.34       -12.56      
H           -15.09      80.58       -17.95      
H           -17.23      77.35       -14.84      
H           -12.9       77.69       -7.63       
H           -11.18      81.31       -10.55      
H           -16.44      77.88       -10.16      
H           -15.84      77.68       -8.54       
H           -15.97614   79.25758    -9.20386    
H           -12.87      76.34       -10.37      
H           -14.16      76.0        -9.02       
H           -14.48795   75.73426    -10.64764   
H           -11.95      80.7        -15.37      
H           -12.57      79.46       -16.35      
H           -12.58308   81.20115    -16.76202   
H           -13.97      82.87       -15.2       
H           -14.53      81.97       -13.69      
H           -15.63682   82.21865    -14.99306   
H           -10.89      78.4        -5.88       
H           -17.34      80.12       -19.58      
S           -9.6        81.01       -8.08       
C           -10.63      79.11       -6.68       
C           -9.52       79.89       -6.71       
C           -22.64      79.2        -20.43      
C           -21.6       80.15       -20.65      
C           -22.21      78.01       -19.93      
N           -21.71      81.29       -21.33      
N           -19.47      81.04       -20.46      
S           -20.4       82.19       -21.14      
H           -20.7       76.87       -19.02      
H           -22.95      77.21       -19.52      
C           -20.86      77.84       -19.49      
C           -20.19      79.94       -20.28      
C           -19.82      78.74       -19.62      
C           -37.34      83.56       -14.6       
C           -36.66      84.47       -15.27      
S           -36.72      81.93       -14.82      
C           -31.41      82.91       -18.07      
C           -32.22      81.88       -17.74      
C           -31.88      80.5        -17.91      
C           -30.64      80.29       -18.49      
C           -29.75      81.32       -18.83      
C           -30.13      82.69       -18.63      
C           -30.06      78.95       -19.04      
C           -28.68      79.38       -19.38      
C           -28.5       80.73       -19.21      
C           -32.09      84.24       -17.76      
C           -33.47      83.8        -17.24      
C           -33.44      82.4        -17.16      
C           -27.64      78.64       -19.88      
C           -26.41      79.25       -20.08      
C           -26.26      80.65       -19.88      
C           -27.38      81.45       -19.6       
C           -34.52      84.56       -16.8       
C           -35.54      83.95       -16.04      
C           -35.49      82.52       -15.89      
C           -34.47      81.76       -16.53      
C           -30.01      77.77       -17.96      
C           -30.66      78.48       -20.44      
C           -31.23      85.0        -16.7       
C           -32.31      85.0        -19.07      
H           -29.4       83.47       -18.85      
H           -32.6       79.75       -17.6       
H           -34.56      85.67       -16.89      
H           -34.43      80.69       -16.34      
H           -27.62      77.55       -19.91      
H           -27.36      82.53       -19.61      
H           -29.93      76.82       -18.56      
H           -30.98      77.53       -17.46      
H           -29.26224   77.93617    -17.18454   
H           -30.11      79.12       -21.17      
H           -30.36      77.39       -20.56      
H           -31.71846   78.6874     -20.59734   
H           -31.5       85.74       -19.18      
H           -33.23      85.61       -18.9       
H           -32.56519   84.42401    -19.9595    
H           -30.25      85.15       -17.26      
H           -31.7       85.88       -16.31      
H           -30.96414   84.31437    -15.89543   
H           -25.02      77.59       -20.42      
H           -36.93      85.45       -15.1       
S           -24.64      81.11       -20.12      
C           -25.15      78.65       -20.33      
C           -24.05      79.45       -20.42      
C           -40.96      84.61       -12.2       
C           -40.28      83.39       -11.93      
C           -40.46      85.32       -13.25      
N           -40.59      82.58       -10.89      
N           -38.61      81.87       -12.24      
S           -39.63      81.3        -11.11      
H           -38.99      85.66       -14.77      
H           -40.92      86.29       -13.49      
C           -39.32      84.93       -14.07      
C           -39.17      83.01       -12.76      
C           -38.58      83.79       -13.81      
C           -53.72      92.55       -5.05       
C           -52.59      93.19       -5.33       
S           -53.53      90.78       -5.08       
C           -48.14      90.02       -8.2        
C           -48.94      89.24       -7.39       
C           -48.87      87.82       -7.33       
C           -47.76      87.32       -8.03       
C           -46.94      88.13       -8.77       
C           -47.12      89.47       -8.89       
C           -47.15      85.86       -8.04       
C           -45.84      86.07       -8.79       
C           -45.76      87.41       -9.32       
C           -48.24      91.53       -7.75       
C           -49.38      91.46       -6.74       
C           -49.85      90.13       -6.71       
C           -44.97      85.08       -9.13       
C           -44.02      85.45       -10.08      
C           -43.87      86.8        -10.59      
C           -44.72      87.78       -10.16      
C           -50.2       92.51       -6.21       
C           -51.55      92.26       -5.8        
C           -51.9       90.88       -5.74       
C           -51.1       89.83       -6.13       
C           -46.8       85.43       -6.61       
C           -47.91      84.76       -8.87       
C           -46.97      92.14       -7.09       
C           -48.7       92.45       -8.93       
H           -46.47      90.11       -9.5        
H           -49.54      87.23       -6.76       
H           -49.91      93.56       -6.27       
H           -51.54      88.84       -5.96       
H           -45.06      84.02       -8.87       
H           -44.7       88.81       -10.51      
H           -47.69      85.32       -5.99       
H           -46.26      84.51       -6.57       
H           -46.21572   86.22092    -6.13972    
H           -47.83      85.04       -9.9        
H           -47.36      83.76       -8.64       
H           -48.93732   84.658      -8.52027    
H           -48.69      93.5        -8.54       
H           -49.73      92.18       -9.17       
H           -48.06115   92.42847    -9.8129     
H           -46.25      92.39       -7.84       
H           -47.32      93.12       -6.75       
H           -46.48942   91.45553    -6.39097    
H           -42.84      83.56       -10.27      
H           -52.48      94.26       -5.19       
S           -42.45      86.83       -11.64      
C           -42.95      84.59       -10.55      
C           -42.11      85.15       -11.43      
C           -57.7       94.21       -3.74       
C           -56.69      94.99       -4.35       
C           -57.34      92.87       -3.7        
N           -56.77      96.35       -4.41       
N           -54.68      95.52       -5.31       
S           -55.46      97.0        -5.13       
H           -55.9       91.31       -4.17       
H           -58.02      92.16       -3.22       
C           -56.07      92.38       -4.2        
C           -55.4       94.47       -4.8        
C           -54.99      93.13       -4.66       
H           78.11       11.25       25.59       
H           -58.63      94.65       -3.54       
