612

C           62.97       26.75       33.97       
C           61.97       27.69       33.93       
S           63.05       25.96       32.43       
C           58.59       29.2        28.95       
C           59.47       28.1        28.77       
C           59.55       27.49       27.48       
C           58.79       27.98       26.46       
C           57.9        29.07       26.64       
C           57.78       29.69       27.88       
C           58.68       27.41       25.05       
C           57.71       28.4        24.41       
C           57.26       29.37       25.35       
C           58.45       29.41       30.46       
C           59.76       28.77       30.98       
C           60.21       27.85       30.02       
C           57.31       28.52       23.12       
C           56.35       29.51       22.75       
C           55.92       30.51       23.74       
C           56.35       30.38       25.05       
C           60.31       28.84       32.23       
C           61.28       27.84       32.64       
C           61.71       26.89       31.67       
C           61.23       26.97       30.35       
C           60.01       27.32       24.34       
C           57.89       26.06       25.17       
C           58.48       30.94       30.68       
C           57.36       28.71       31.29       
H           57.09       30.46       28.11       
H           60.34       26.73       27.11       
H           59.99       29.57       32.98       
H           61.52       26.22       29.61       
H           57.83       27.94       22.34       
H           56.07       31.21       25.74       
H           60.5        26.37       24.51       
H           59.94       27.61       23.31       
H           60.74187    28.08847    24.58884    
H           57.1        26.14       25.76       
H           57.61       25.89       24.13       
H           58.43659    25.20817    25.57462    
H           57.29       29.15       32.28       
H           57.56       27.68       31.59       
H           56.41179    28.87155    30.77726    
H           57.59       31.37       30.24       
H           58.22       31.05       31.81       
H           59.38203    31.4192     30.29946    
H           56.37       29.34       20.56       
H           61.8        28.31       34.87       
S           54.62       31.33       23.07       
C           55.93       29.85       21.45       
C           54.98       30.81       21.39       
C           65.96       25.88       37.03       
C           64.55       26.02       37.35       
C           66.22       25.91       35.64       
N           64.07       26.21       38.56       
N           62.32       26.5        36.85       
S           62.48       26.7        38.47       
H           65.51       26.27       33.67       
H           67.27       25.89       35.24       
C           65.2        26.08       34.67       
C           63.52       26.12       36.37       
C           63.91       26.22       34.97       
C           78.13       32.64       46.11       
C           76.84       32.64       46.34       
S           78.46       31.64       44.68       
C           72.68       29.63       43.11       
C           74.02       29.3        42.75       
C           74.23       28.49       41.64       
C           73.11       28.01       40.97       
C           71.85       28.52       41.24       
C           71.64       29.46       42.3        
C           73.01       26.94       39.85       
C           71.53       26.88       39.56       
C           70.86       27.83       40.36       
C           72.65       30.38       44.42       
C           74.14       30.59       44.68       
C           74.95       29.97       43.67       
C           70.76       26.0        38.82       
C           69.33       26.22       38.73       
C           68.73       27.21       39.53       
C           69.5        28.0        40.38       
C           74.72       31.4        45.69       
C           76.08       31.67       45.6        
C           76.86       30.92       44.67       
C           76.33       30.09       43.67       
C           73.75       27.42       38.6        
C           73.53       25.55       40.35       
C           71.99       31.78       44.27       
C           72.12       29.62       45.67       
H           70.63       29.78       42.59       
H           75.18       28.15       41.38       
H           74.08       31.82       46.4        
H           76.93       29.71       42.91       
H           71.21       25.28       38.14       
H           69.1        28.82       40.91       
H           73.95       26.56       38.02       
H           74.78       27.75       38.91       
H           73.13277    28.04441    37.95406    
H           74.61       25.71       40.3        
H           73.29       24.65       39.72       
H           73.21349    25.42771    41.38584    
H           72.11       30.29       46.59       
H           72.88       28.86       45.99       
H           71.14567    29.16484    45.4922     
H           70.86       31.66       44.09       
H           72.13       32.41       45.19       
H           72.39379    32.31594    43.41103    
H           68.63       24.78       37.11       
H           76.41       33.29       47.13       
S           67.03       27.2        39.23       
C           68.34       25.48       37.89       
C           67.09       25.93       38.0        
C           81.23       35.08       48.06       
C           81.57       34.07       47.19       
C           79.87       35.27       48.19       
N           82.75       33.65       46.81       
N           81.11       32.17       45.93       
S           82.77       32.31       45.91       
H           77.83       34.86       47.77       
H           79.46       36.13       48.74       
C           78.81       34.49       47.6        
C           80.54       33.15       46.6        
C           79.13       33.4        46.81       
C           90.87       48.16       48.56       
C           89.6        48.16       49.09       
S           91.38       46.49       48.68       
C           86.07       43.29       50.24       
C           87.41       43.03       49.89       
C           87.98       41.8        49.9        
C           87.1        40.72       49.99       
C           85.69       40.86       50.32       
C           85.21       42.16       50.5        
C           87.36       39.26       49.74       
C           85.95       38.6        49.77       
C           85.05       39.54       50.29       
C           85.8        44.82       50.25       
C           87.11       45.41       49.75       
C           88.06       44.39       49.64       
C           85.59       37.43       49.26       
C           84.24       37.14       49.24       
C           83.31       38.02       49.87       
C           83.73       39.22       50.41       
C           87.58       46.73       49.68       
C           88.96       46.95       49.35       
C           89.86       45.87       49.2        
C           89.43       44.58       49.39       
C           88.13       38.93       48.46       
C           88.07       38.57       50.95       
C           84.62       45.15       49.27       
C           85.53       45.3        51.71       
H           84.12       42.39       50.64       
H           89.0        41.6        49.76       
H           86.86       47.54       49.61       
H           90.1        43.71       49.38       
H           86.25       36.83       48.74       
H           83.04       39.9        50.87       
H           88.05       37.86       48.41       
H           89.14       39.09       48.68       
H           87.68386    39.36917    47.56771    
H           87.2        38.44       51.59       
H           88.46       37.6        50.77       
H           88.75899    39.20875    51.50263    
H           84.51       45.1        52.03       
H           85.81       46.4        51.89       
H           86.13592    44.75749    52.4357     
H           83.72       44.6        49.59       
H           84.26       46.2        49.36       
H           84.87367    44.92452    48.23419    
H           84.15       35.33       48.01       
H           89.0        49.09       49.2        
S           81.67       37.37       49.72       
C           83.56       36.02       48.57       
C           82.19       35.99       48.68       
C           93.33       51.69       47.47       
C           93.61       50.39       46.93       
C           92.22       51.69       48.28       
N           94.76       50.14       46.21       
N           93.5        48.06       46.79       
S           94.88       48.53       46.08       
H           90.52       50.69       49.15       
H           91.8        52.61       48.68       
C           91.42       50.55       48.52       
C           92.88       49.15       47.28       
C           91.66       49.26       48.07       
C           101.66      65.39       45.89       
C           100.8       65.08       46.95       
S           101.24      64.37       44.53       
C           96.7        60.63       46.93       
C           97.46       60.72       45.78       
C           97.35       59.91       44.67       
C           96.53       58.84       44.83       
C           95.64       58.79       45.88       
C           95.65       59.69       46.93       
C           96.43       57.6        43.93       
C           95.4        56.77       44.68       
C           95.06       57.46       45.9        
C           97.16       61.6        47.99       
C           98.13       62.43       47.16       
C           98.36       61.88       45.9        
C           95.04       55.48       44.48       
C           94.54       54.77       45.61       
C           94.35       55.4        46.91       
C           94.6        56.73       47.06       
C           98.94       63.52       47.63       
C           99.84       64.12       46.7        
C           100.0       63.53       45.4        
C           99.24       62.4        44.97       
C           95.96       57.89       42.47       
C           97.79       56.8        43.9        
C           95.98       62.52       48.41       
C           97.95       61.02       49.12       
H           94.91       59.61       47.81       
H           97.94       60.04       43.76       
H           98.78       63.89       48.66       
H           99.57       61.97       44.08       
H           95.24       54.88       43.62       
H           94.52       57.17       48.08       
H           96.45       57.35       41.7        
H           96.25       58.91       42.2        
H           94.87994    58.02136    42.40432    
H           98.59       57.37       43.51       
H           97.76       55.85       43.36       
H           98.13896    56.62908    44.91839    
H           97.59       61.56       50.0        
H           98.99       61.21       48.9        
H           97.85166    59.93829    49.21131    
H           95.23       61.96       48.88       
H           96.32       63.23       49.17       
H           95.44298    62.97222    47.57621    
H           94.3        52.57       45.04       
H           100.89      65.62       47.89       
S           93.98       54.24       48.21       
C           94.23       53.3        45.8        
C           93.89       52.98       47.04       
C           105.82      66.44       45.42       
C           104.89      66.88       44.46       
C           105.3       65.94       46.52       
N           105.17      67.53       43.34       
N           102.71      67.26       43.55       
S           103.87      67.82       42.44       
H           103.61      65.38       47.65       
H           105.98      65.6        47.36       
C           103.9       65.84       46.76       
C           103.42      66.75       44.61       
C           102.94      66.07       45.81       
C           120.95      72.77       44.49       
C           120.18      73.08       45.54       
S           120.28      71.58       43.46       
C           114.71      70.5        46.41       
C           115.47      70.16       45.2        
C           114.94      69.3        44.28       
C           113.7       68.81       44.5        
C           112.93      69.22       45.62       
C           113.43      70.06       46.63       
C           112.92      68.12       43.38       
C           111.66      67.93       44.21       
C           111.66      68.58       45.48       
C           115.53      71.53       47.2        
C           116.79      71.72       46.33       
C           116.75      70.81       45.21       
C           110.42      67.42       43.74       
C           109.37      67.29       44.52       
C           109.52      67.73       45.84       
C           110.56      68.53       46.3        
C           117.79      72.65       46.47       
C           118.87      72.47       45.57       
C           118.85      71.58       44.4        
C           117.76      70.8        44.21       
C           112.54      69.21       42.36       
C           113.55      66.8        42.82       
C           114.81      72.86       47.25       
C           115.8       71.09       48.66       
H           112.92      70.32       47.59       
H           115.53      68.93       43.52       
H           117.77      73.36       47.29       
H           117.6       70.23       43.28       
H           110.31      67.15       42.65       
H           110.6       69.05       47.28       
H           112.88      70.1        42.9        
H           111.48      69.31       42.18       
H           113.09836   69.17374    41.42457    
H           114.56      67.07       42.5        
H           112.9       66.3        42.12       
H           113.75702   66.13064    43.65498    
H           114.82      70.92       49.2        
H           116.38      71.89       49.22       
H           116.42543   70.19753    48.68108    
H           113.95      72.69       47.93       
H           115.42      73.61       47.66       
H           114.40258   73.24635    46.31574    
H           107.98      66.32       43.23       
H           120.45      73.9        46.14       
S           108.04      67.33       46.65       
C           108.14      66.64       44.24       
C           107.27      66.63       45.28       
C           124.9       73.96       42.86       
C           124.71      74.11       44.29       
C           123.89      73.46       42.24       
N           125.65      74.54       45.18       
N           123.32      74.27       46.19       
S           124.87      74.7        46.61       
H           121.91      72.68       42.07       
H           124.02      73.32       41.19       
C           122.66      73.01       42.8        
C           123.32      73.88       44.91       
C           122.29      73.2        44.12       
C           132.79      78.64       30.04       
C           132.08      77.51       30.11       
S           133.3       79.23       31.57       
C           130.66      75.04       35.41       
C           131.55      76.14       35.5        
C           131.98      76.6        36.75       
C           131.28      76.06       37.94       
C           130.34      75.08       37.77       
C           130.12      74.43       36.53       
C           131.24      76.65       39.4        
C           129.95      75.88       39.98       
C           129.59      74.94       38.98       
C           130.33      74.72       33.97       
C           131.24      75.69       33.23       
C           131.83      76.63       34.15       
C           129.27      76.0        41.2        
C           128.14      75.21       41.29       
C           127.8       74.23       40.23       
C           128.55      74.07       39.08       
C           131.32      75.86       31.89       
C           131.95      76.99       31.42       
C           132.65      77.85       32.35       
C           132.54      77.73       33.72       
C           132.52      76.17       40.13       
C           131.04      78.16       39.51       
C           130.68      73.2        33.67       
C           128.84      74.97       33.65       
H           129.51      73.5        36.49       
H           132.59      77.52       36.81       
H           130.8       75.06       31.33       
H           132.93      78.45       34.4        
H           129.56      76.69       42.03       
H           128.38      73.17       38.47       
H           133.08      76.98       40.7        
H           133.21      75.74       39.44       
H           132.33089   75.35053    40.8234     
H           131.99      78.72       39.32       
H           130.7       78.41       40.48       
H           130.26042   78.58258    38.87614    
H           128.17      74.34       34.26       
H           128.63      74.66       32.64       
H           128.53749   75.99712    33.85402    
H           130.35      72.61       34.58       
H           130.09      72.97       32.8        
H           131.73447   73.06306    33.43035    
H           127.1       75.81       43.31       
H           131.73      77.01       29.19       
S           126.3       73.44       40.63       
C           127.09      75.22       42.32       
C           126.08      74.36       42.05       
C           134.35      80.61       26.52       
C           133.91      81.46       27.59       
C           134.17      79.29       26.65       
N           133.92      82.76       27.71       
N           132.83      81.64       29.64       
S           133.26      83.14       29.13       
H           133.69      77.56       27.82       
H           134.33      78.64       25.78       
C           133.7       78.65       27.81       
C           133.36      80.76       28.78       
C           133.28      79.34       28.86       
C           138.1       86.95       11.76       
C           137.32      85.87       11.89       
S           138.86      87.25       13.27       
C           135.98      83.4        17.32       
C           137.06      84.31       17.31       
C           137.74      84.75       18.49       
C           137.36      84.12       19.68       
C           136.32      83.13       19.67       
C           135.59      82.81       18.5        
C           137.84      84.43       21.1        
C           137.0       83.43       21.88       
C           136.08      82.74       21.07       
C           135.46      83.09       15.93       
C           136.38      84.03       15.12       
C           137.2       84.78       15.96       
C           137.05      83.21       23.28       
C           136.21      82.29       23.84       
C           135.34      81.6        22.94       
C           135.24      81.83       21.61       
C           136.32      84.26       13.71       
C           137.12      85.34       13.19       
C           138.05      85.96       14.1        
C           138.06      85.7        15.49       
C           139.4       84.17       21.26       
C           137.5       85.81       21.68       
C           135.56      81.61       15.62       
C           133.92      83.55       15.89       
H           134.79      82.11       18.62       
H           138.53      85.53       18.44       
H           135.97      83.48       13.02       
H           138.82      86.18       16.06       
H           137.7       83.81       23.83       
H           134.59      81.18       21.03       
H           139.71      84.13       22.37       
H           139.99      84.93       20.78       
H           139.73651   83.29651    20.70154    
H           138.33      86.55       21.51       
H           137.44      85.74       22.73       
H           136.52512   86.17558    21.35743    
H           133.38      82.94       16.57       
H           133.39      83.32       14.91       
H           133.82336   84.62689    16.02806    
H           135.26      80.96       16.41       
H           134.96      81.22       14.75       
H           136.573     81.2864     15.38082    
H           136.46      82.44       26.04       
H           136.8       85.35       11.03       
S           134.26      80.63       23.87       
C           135.98      81.98       25.24       
C           135.0       81.08       25.39       
C           139.38      89.5        8.41        
C           138.24      88.62       8.26        
C           140.1       89.41       9.58        
N           137.52      88.5        7.16        
N           136.62      87.02       8.94        
S           136.21      87.48       7.43        
H           140.24      88.37       11.47       
H           141.0       90.06       9.84        
C           139.62      88.46       10.57       
C           137.73      87.66       9.29        
C           138.43      87.7        10.59       
C           144.77      100.66      -2.36       
C           145.29      100.77      -1.07       
S           143.21      99.85       -2.28       
C           143.03      97.46       3.55        
C           142.1       97.73       2.51        
C           140.88      97.09       2.39        
C           140.55      96.07       3.35        
C           141.43      95.71       4.37        
C           142.65      96.43       4.41        
C           139.26      95.2        3.38        
C           139.66      94.23       4.48        
C           140.92      94.54       5.08        
C           144.31      98.19       3.33        
C           144.07      98.92       2.0         
C           142.79      98.55       1.52        
C           139.0       93.07       4.8         
C           139.47      92.26       5.8         
C           140.7       92.59       6.35        
C           141.47      93.75       6.04        
C           144.92      99.71       1.23        
C           144.6       100.05      -0.06       
C           143.37      99.52       -0.56       
C           142.45      98.84       0.21        
C           138.04      96.05       3.85        
C           139.07      94.54       2.0         
C           144.65      99.14       4.46        
C           145.45      97.13       3.15        
H           143.44      96.1        5.1         
H           140.21      97.31       1.58        
H           145.79      100.14      1.61        
H           141.55      98.4        -0.26       
H           138.13      92.75       4.31        
H           142.43      93.98       6.57        
H           137.56      96.77       3.19        
H           138.31      96.58       4.71        
H           137.18209   95.49951    4.23606     
H           138.72      95.26       1.31        
H           138.32      93.78       2.17        
H           139.88606   93.97982    1.54356     
H           145.5       96.35       3.91        
H           146.33      97.76       3.15        
H           145.44316   96.66457    2.16439     
H           144.33      98.68       5.43        
H           145.71      99.31       4.62        
H           144.1967    100.11855   4.3017      
H           138.0       90.74       6.11        
H           146.17      101.31      -0.85       
S           141.16      91.44       7.6         
C           138.94      91.07       6.39        
C           139.66      90.55       7.44        
C           146.15      101.84      -6.35       
C           146.65      102.51      -5.18       
C           145.24      100.89      -6.06       
N           147.41      103.64      -5.19       
N           146.89      102.76      -2.91       
S           147.72      104.02      -3.63       
H           144.11      99.71       -4.84       
H           144.79      100.37      -6.87       
C           144.82      100.49      -4.83       
C           146.16      102.16      -3.84       
C           145.26      101.08      -3.65       
C           146.59      107.17      -21.86      
C           146.54      108.04      -20.86      
S           146.27      105.52      -21.31      
C           145.86      106.29      -15.13      
C           145.92      105.26      -16.0       
C           145.68      103.96      -15.69      
C           145.49      103.66      -14.36      
C           145.52      104.72      -13.45      
C           145.66      106.06      -13.81      
C           145.31      102.24      -13.8       
C           145.23      102.59      -12.33      
C           145.49      104.02      -12.16      
C           146.15      107.6       -15.8       
C           146.19      107.21      -17.24      
C           146.24      105.79      -17.32      
C           145.3       101.74      -11.25      
C           145.68      102.18      -9.97       
C           145.91      103.53      -9.79       
C           145.84      104.5       -10.86      
C           146.32      107.99      -18.3       
C           146.46      107.4       -19.55      
C           146.38      105.97      -19.66      
C           146.26      105.18      -18.51      
C           143.93      101.59      -14.09      
C           146.56      101.31      -14.03      
C           144.9       108.47      -15.5       
C           147.46      108.31      -15.43      
H           145.71      106.86      -13.05      
H           145.63      103.24      -16.53      
H           146.22      109.08      -18.23      
H           146.19      104.05      -18.65      
H           145.21      100.74      -11.45      
H           145.95      105.49      -10.68      
H           143.85      101.13      -15.06      
H           143.72      100.82      -13.3       
H           143.10106   102.29746   -14.11144   
H           147.42      101.85      -13.64      
H           146.56      100.41      -13.35      
H           146.78345   100.98563   -15.04634   
H           147.34      109.27      -15.98      
H           148.26      107.76      -15.99      
H           147.63642   108.50112   -14.37149   
H           144.91      108.78      -14.5       
H           144.96      109.42      -16.1       
H           143.95664   107.97751   -15.73584   
H           145.62      100.38      -8.73       
H           146.6       109.1       -21.0       
S           146.38      103.86      -8.17       
C           145.79      101.43      -8.79       
C           146.19      102.19      -7.71       
C           147.49      108.1       -26.01      
C           146.94      109.11      -25.2       
C           147.48      106.83      -25.46      
N           146.59      110.35      -25.54      
N           146.25      109.94      -23.17      
S           146.08      111.18      -24.22      
H           147.06      105.51      -23.83      
H           147.98      106.02      -26.11      
C           147.0       106.5       -24.17      
C           146.58      108.82      -23.83      
C           146.67      107.48      -23.24      
C           151.86      111.12      -41.83      
C           151.25      112.03      -41.03      
S           152.06      109.55      -41.02      
C           149.35      110.68      -35.37      
C           150.25      109.78      -35.95      
C           150.51      108.6       -35.3       
C           149.99      108.34      -34.07      
C           149.04      109.19      -33.52      
C           148.61      110.3       -34.2       
C           150.37      107.29      -33.06      
C           149.53      107.65      -31.87      
C           148.79      108.85      -32.14      
C           149.23      112.02      -36.23      
C           150.05      111.58      -37.48      
C           150.53      110.23      -37.29      
C           149.64      107.21      -30.55      
C           148.81      107.89      -29.55      
C           148.09      108.99      -29.86      
C           148.09      109.52      -31.12      
C           150.25      112.22      -38.65      
C           150.93      111.57      -39.7       
C           151.27      110.2       -39.56      
C           151.11      109.57      -38.37      
C           150.01      105.91      -33.6       
C           151.87      107.33      -32.73      
C           147.83      112.39      -36.79      
C           149.94      113.18      -35.53      
H           147.94      111.02      -33.74      
H           151.21      107.84      -35.72      
H           149.91      113.25      -38.81      
H           151.39      108.49      -38.34      
H           150.32      106.36      -30.37      
H           147.52      110.4       -31.34      
H           150.62      105.54      -34.4       
H           149.06      106.01      -34.16      
H           149.8933    105.10686   -32.87237   
H           152.35      106.97      -33.57      
H           152.03      106.58      -31.98      
H           152.28167   108.32668   -32.57111   
H           149.87      114.01      -36.28      
H           151.0       113.01      -35.49      
H           149.4564    113.51161   -34.61116   
H           147.29      113.15      -36.3       
H           147.86      112.74      -37.84      
H           147.22406   111.48465   -36.82564   
H           148.96      106.47      -27.89      
H           151.01      113.01      -41.34      
S           147.26      109.49      -28.49      
C           148.62      107.4       -28.2       
C           147.96      108.28      -27.44      
C           153.22      111.52      -46.13      
C           153.48      112.51      -45.15      
C           152.61      110.41      -45.53      
N           154.15      113.59      -45.46      
N           153.54      113.44      -43.01      
S           154.44      114.44      -44.02      
H           151.51      109.6       -43.95      
H           152.23      109.66      -46.19      
C           152.15      110.39      -44.19      
C           153.08      112.42      -43.73      
C           152.4       111.27      -43.2       
H           54.74       31.44       20.47       
H           153.16      111.77      -47.17      
