612

C           60.83       46.13       28.42       
C           60.91       46.52       27.06       
S           59.22       45.59       28.87       
C           56.13       46.45       23.22       
C           55.87       45.9        24.55       
C           54.6        45.65       24.93       
C           53.52       45.92       24.03       
C           53.78       46.4        22.73       
C           55.1        46.57       22.3        
C           52.0        45.74       24.26       
C           51.41       46.38       22.92       
C           52.51       46.74       22.09       
C           57.58       46.95       23.14       
C           58.09       46.61       24.53       
C           57.09       46.06       25.4        
C           50.13       46.59       22.47       
C           49.91       47.09       21.19       
C           51.03       47.39       20.35       
C           52.35       47.3        20.88       
C           59.35       46.8        25.07       
C           59.66       46.44       26.43       
C           58.62       45.92       27.28       
C           57.37       45.71       26.73       
C           51.68       44.22       24.37       
C           51.52       46.54       25.53       
C           58.22       46.29       21.91       
C           57.4        48.49       23.0        
H           55.37       46.95       21.31       
H           54.24       45.52       25.99       
H           60.19       47.1        24.52       
H           56.6        45.24       27.33       
H           49.24       46.26       22.99       
H           53.18       47.5        20.18       
H           52.16       43.77       25.21       
H           52.06       43.82       23.46       
H           50.62012    43.96898    24.41184    
H           52.0        46.19       26.5        
H           50.43       46.48       25.63       
H           51.80256    47.59253    25.55119    
H           56.88       48.71       22.1        
H           56.9        48.86       23.88       
H           58.33527    49.04975    23.00709    
H           57.68       46.69       21.11       
H           59.25       46.65       21.68       
H           58.28084    45.20172    21.91676    
H           47.7        47.34       20.96       
H           61.77       47.01       26.64       
S           50.54       47.81       18.73       
C           48.68       47.33       20.51       
C           48.82       47.73       19.16       
C           64.41       46.37       31.05       
C           63.13       46.04       31.61       
C           64.41       46.37       29.63       
N           62.86       45.9        32.9        
N           60.8        45.72       31.48       
S           61.27       45.57       33.04       
H           63.29       46.26       27.74       
H           65.36       46.42       29.03       
C           63.2        46.3        28.81       
C           61.92       45.97       30.76       
C           61.98       46.15       29.36       
C           80.59       46.1        35.04       
C           80.09       46.62       33.87       
S           79.24       46.02       36.26       
C           74.1        47.43       32.79       
C           74.4        47.07       34.15       
C           73.38       46.73       35.03       
C           72.09       46.76       34.54       
C           71.77       47.08       33.27       
C           72.78       47.46       32.41       
C           70.83       46.32       35.26       
C           69.8        46.52       34.18       
C           70.3        47.04       33.0        
C           75.36       47.72       31.96       
C           76.45       47.44       33.06       
C           75.87       47.02       34.29       
C           68.42       46.43       34.34       
C           67.63       46.57       33.14       
C           68.17       47.2        31.96       
C           69.53       47.37       31.89       
C           77.82       47.31       32.85       
C           78.65       46.81       33.84       
C           78.01       46.52       35.04       
C           76.7        46.6        35.34       
C           70.86       44.91       35.77       
C           70.44       47.35       36.35       
C           75.73       46.71       30.85       
C           75.5        49.21       31.5        
H           72.59       47.61       31.33       
H           73.66       46.24       35.95       
H           78.31       47.76       31.99       
H           76.34       46.22       36.28       
H           67.89       46.21       35.29       
H           69.96       47.81       30.97       
H           69.93       44.6        36.23       
H           71.62       44.78       36.51       
H           71.13194    44.18484    35.003      
H           70.64       47.03       37.35       
H           69.39       47.41       36.4        
H           70.94153    48.31007    36.2282     
H           75.2        49.32       30.44       
H           76.6        49.44       31.44       
H           74.94691    49.912      32.124      
H           75.07       46.92       30.03       
H           76.73       46.91       30.45       
H           75.66606    45.66564    31.15549    
H           65.55       45.98       33.72       
H           80.63       46.79       32.96       
S           66.99       47.24       30.69       
C           66.19       46.36       33.0        
C           65.74       46.53       31.69       
C           84.48       44.57       36.25       
C           84.13       44.66       34.85       
C           83.49       44.88       37.12       
N           84.99       44.47       33.85       
N           82.74       45.32       33.09       
S           84.18       44.83       32.42       
H           81.58       45.57       37.59       
H           83.82       44.95       38.18       
C           82.18       45.29       36.74       
C           82.82       45.07       34.42       
C           81.81       45.39       35.39       
C           100.31      44.56       41.16       
C           99.39       45.09       42.11       
S           99.54       43.72       39.9        
C           93.45       44.85       40.69       
C           94.32       44.08       39.87       
C           93.98       43.44       38.72       
C           92.6        43.58       38.36       
C           91.67       44.32       39.13       
C           92.14       44.96       40.27       
C           91.91       42.94       37.11       
C           90.5        43.44       37.32       
C           90.35       44.13       38.56       
C           94.18       45.47       41.92       
C           95.62       44.97       41.68       
C           95.64       44.25       40.45       
C           89.44       43.24       36.46       
C           88.15       43.78       36.85       
C           88.03       44.47       38.09       
C           89.1        44.57       39.02       
C           96.8        45.31       42.31       
C           98.0        44.95       41.69       
C           97.99       44.15       40.55       
C           96.81       43.91       39.85       
C           92.53       43.46       35.82       
C           91.82       41.41       37.05       
C           94.19       47.02       41.79       
C           93.53       44.96       43.26       
H           91.43       45.56       40.88       
H           94.67       42.8        38.18       
H           96.87       45.88       43.22       
H           96.81       43.31       38.86       
H           89.46       42.86       35.47       
H           88.94       45.09       39.99       
H           91.93       43.0        35.09       
H           93.53       43.11       35.71       
H           92.48644    44.54903    35.80548    
H           92.76       41.13       36.55       
H           90.92       41.09       36.46       
H           91.86922    40.95994    38.04153    
H           92.64       45.51       43.55       
H           93.46       43.85       43.21       
H           94.18071    45.0223     44.13223    
H           94.56       47.37       42.79       
H           93.13       47.35       41.71       
H           94.82733    47.39237    40.98797    
H           86.8        43.3        35.13       
H           99.66       45.53       43.04       
S           86.39       45.05       38.22       
C           86.92       43.7        36.09       
C           85.86       44.33       36.67       
C           104.65      44.74       41.43       
C           103.82      44.91       42.57       
C           103.99      44.35       40.25       
N           104.29      45.28       43.74       
N           101.79      45.0        43.7        
S           102.98      45.34       44.71       
H           102.32      44.03       39.23       
H           104.55      44.15       39.38       
C           102.65      44.28       40.19       
C           102.41      44.78       42.48       
C           101.74      44.43       41.28       
C           120.66      47.42       38.91       
C           119.71      47.67       37.98       
S           120.02      46.96       40.5        
C           113.9       47.57       39.3        
C           114.7       47.32       40.38       
C           114.13      47.13       41.68       
C           112.82      46.65       41.85       
C           112.02      46.71       40.67       
C           112.58      47.23       39.5        
C           112.06      46.05       43.02       
C           110.7       45.84       42.37       
C           110.71      46.28       41.05       
C           114.62      47.88       37.95       
C           116.08      47.68       38.47       
C           116.06      47.45       39.89       
C           109.52      45.32       42.97       
C           108.33      45.28       42.17       
C           108.37      45.56       40.77       
C           109.59      46.05       40.22       
C           117.29      47.85       37.8        
C           118.41      47.58       38.55       
C           118.37      47.31       39.92       
C           117.24      47.24       40.63       
C           112.58      44.69       43.53       
C           111.76      47.07       44.12       
C           114.18      46.84       36.88       
C           114.54      49.29       37.43       
H           111.95      47.33       38.7        
H           114.81      46.95       42.48       
H           117.28      48.19       36.78       
H           117.13      47.19       41.73       
H           109.47      45.16       44.07       
H           109.54      46.45       39.2        
H           113.39      44.94       44.14       
H           111.86      44.08       44.19       
H           112.84127   44.00245    42.72557    
H           111.01      47.8        43.69       
H           111.1       46.64       44.89       
H           112.59282   47.60846    44.57231    
H           114.92      49.08       36.4        
H           115.35      49.85       37.96       
H           113.51844   49.66784    37.38802    
H           113.48      47.17       36.21       
H           113.69      46.05       37.36       
H           115.01286   46.43063    36.30829    
H           106.76      44.8        43.57       
H           119.95      47.78       36.92       
S           106.8       45.4        40.07       
C           106.97      44.9        42.54       
C           106.11      44.79       41.51       
C           124.49      45.46       38.47       
C           123.55      45.48       37.35       
C           124.15      46.33       39.48       
N           123.76      44.83       36.19       
N           121.72      46.21       36.19       
S           122.58      45.25       35.18       
H           122.8       47.72       40.3        
H           124.88      46.52       40.32       
C           122.92      47.06       39.46       
C           122.39      46.27       37.4        
C           121.98      46.87       38.56       
C           135.91      34.47       35.52       
C           135.93      35.64       34.78       
S           135.05      34.66       37.04       
C           132.9       40.64       36.34       
C           133.09      39.68       37.38       
C           132.42      39.82       38.6        
C           131.46      40.86       38.74       
C           131.3       41.76       37.7        
C           132.06      41.72       36.57       
C           130.56      41.2        39.94       
C           129.62      42.17       39.26       
C           130.12      42.63       38.01       
C           133.84      40.32       35.15       
C           134.32      38.94       35.57       
C           133.86      38.59       36.85       
C           128.46      42.61       39.75       
C           127.64      43.46       38.96       
C           128.15      43.91       37.74       
C           129.41      43.56       37.2        
C           135.08      38.01       34.88       
C           135.28      36.76       35.44       
C           134.8       36.37       36.71       
C           134.15      37.32       37.47       
C           129.73      39.89       40.33       
C           131.16      41.82       41.26       
C           132.95      40.23       33.86       
C           134.99      41.31       34.99       
H           131.86      42.49       35.79       
H           132.6       39.08       39.34       
H           135.47      38.17       33.84       
H           133.69      37.02       38.41       
H           127.99      42.16       40.67       
H           129.77      43.98       36.27       
H           130.32      39.19       40.87       
H           128.85      40.23       40.91       
H           129.41468   39.31802    39.45736    
H           131.15      42.87       41.18       
H           130.51      41.49       42.03       
H           132.16324   41.4622     41.49152    
H           134.62      42.27       34.74       
H           135.47      41.36       35.96       
H           135.75459   41.06222    34.25373    
H           132.54      41.19       33.78       
H           133.55      40.0        32.96       
H           132.22164   39.43227    34.00567    
H           125.89      43.6        40.25       
H           136.36      35.75       33.79       
S           126.94      45.08       37.14       
C           126.33      43.97       39.35       
C           125.75      44.71       38.4        
C           137.1       30.34       34.56       
C           137.0       31.32       33.51       
C           136.8       30.82       35.84       
N           137.31      31.15       32.27       
N           136.92      33.52       32.71       
S           137.41      32.57       31.47       
H           136.14      32.38       37.13       
H           136.65      30.1        36.64       
C           136.32      32.13       36.07       
C           136.68      32.71       33.78       
C           136.26      33.11       35.13       
C           145.93      16.85       35.03       
C           144.96      17.02       35.97       
S           145.36      17.51       33.49       
C           140.58      21.17       35.44       
C           141.32      20.88       34.2        
C           141.07      21.64       33.05       
C           140.23      22.72       33.08       
C           139.69      23.11       34.33       
C           139.76      22.33       35.45       
C           139.81      23.68       31.94       
C           139.37      24.86       32.77       
C           139.19      24.48       34.18       
C           141.19      20.39       36.6        
C           142.1       19.4        35.82       
C           142.23      19.81       34.44       
C           139.0       26.16       32.38       
C           138.45      27.03       33.38       
C           138.27      26.67       34.74       
C           138.66      25.36       35.12       
C           142.86      18.37       36.38       
C           143.8       17.75       35.56       
C           143.91      18.23       34.19       
C           143.12      19.2        33.62       
C           141.07      24.15       31.15       
C           138.72      23.0        31.04       
C           142.0       21.3        37.65       
C           140.27      19.43       37.37       
H           139.26      22.73       36.38       
H           141.62      21.37       32.14       
H           142.91      18.13       37.41       
H           143.28      19.54       32.6        
H           138.91      26.44       31.31       
H           138.65      24.97       36.13       
H           141.45      23.44       30.5        
H           140.69      24.99       30.48       
H           141.86354   24.53234    31.79204    
H           137.75      22.89       31.54       
H           138.59      23.72       30.14       
H           139.02592   22.01111    30.69851    
H           140.69      19.1        38.34       
H           140.05      18.57       36.7        
H           139.31021   19.89907    37.58649    
H           141.29      21.7        38.35       
H           142.71      20.71       38.27       
H           142.59051   22.12379    37.24904    
H           137.95      28.84       32.17       
H           145.04      16.72       36.94       
S           137.6       27.9        35.71       
C           137.93      28.36       33.17       
C           137.55      28.98       34.31       
C           150.35      16.65       35.47       
C           149.46      15.86       36.23       
C           149.72      17.3        34.51       
N           149.82      14.96       37.19       
N           147.37      15.2        37.09       
S           148.47      14.29       37.84       
H           147.96      18.06       33.62       
H           150.3       17.88       33.83       
C           148.29      17.34       34.32       
C           148.01      15.85       36.11       
C           147.38      16.56       35.02       
C           166.77      19.14       36.78       
C           165.97      19.66       35.78       
S           165.84      18.3        37.97       
C           159.89      19.2        35.97       
C           160.51      18.44       36.99       
C           159.71      17.67       37.86       
C           158.37      17.53       37.6        
C           157.77      18.31       36.58       
C           158.5       19.16       35.8        
C           157.34      16.6        38.31       
C           156.08      16.97       37.52       
C           156.34      18.03       36.59       
C           160.96      20.01       35.18       
C           162.22      19.42       35.66       
C           161.99      18.6        36.8        
C           154.79      16.5        37.76       
C           153.82      16.79       36.82       
C           154.1       17.81       35.85       
C           155.35      18.45       35.73       
C           163.52      19.77       35.21       
C           164.6       19.38       35.97       
C           164.33      18.57       37.13       
C           163.02      18.19       37.56       
C           157.74      15.11       38.21       
C           157.12      17.03       39.76       
C           160.69      19.77       33.61       
C           160.97      21.56       35.57       
H           158.04      19.68       34.97       
H           160.12      16.98       38.58       
H           163.65      20.4        34.34       
H           162.81      17.6        38.44       
H           154.64      15.64       38.4        
H           155.61      19.05       34.87       
H           158.76      14.99       38.61       
H           157.12      14.54       38.84       
H           157.60359   14.7295     37.19772    
H           156.64      18.03       39.81       
H           156.39      16.26       40.18       
H           157.99809   17.07249    40.4044     
H           161.71      21.98       34.94       
H           161.14      21.81       36.69       
H           159.98104   22.01148    35.49117    
H           159.7       20.14       33.34       
H           161.5       20.27       33.08       
H           160.7404    18.7261     33.30043    
H           152.2       15.4        37.25       
H           166.42      20.36       35.05       
S           152.73      17.99       34.8        
C           152.49      16.27       36.72       
C           151.75      16.84       35.75       
C           171.11      19.69       37.47       
C           170.37      20.61       36.67       
C           170.34      18.72       38.02       
N           170.92      21.63       35.97       
N           168.46      21.47       35.66       
S           169.7       22.48       35.24       
H           168.41      17.71       38.27       
H           170.77      18.05       38.81       
C           168.94      18.51       37.77       
C           168.96      20.47       36.41       
C           168.21      19.37       36.92       
C           187.34      17.99       39.86       
C           186.66      16.93       39.42       
S           186.39      19.39       39.95       
C           180.83      17.43       37.57       
C           181.52      18.61       37.89       
C           180.89      19.88       37.93       
C           179.56      20.03       37.71       
C           178.82      18.86       37.45       
C           179.45      17.62       37.31       
C           178.66      21.21       38.17       
C           177.27      20.67       37.82       
C           177.41      19.27       37.5        
C           181.71      16.14       37.89       
C           183.0       16.88       38.25       
C           182.93      18.28       38.18       
C           176.03      21.23       37.93       
C           174.81      20.43       37.77       
C           175.03      19.07       37.6        
C           176.27      18.47       37.48       
C           184.22      16.32       38.59       
C           185.23      17.22       39.06       
C           184.99      18.61       39.21       
C           183.84      19.15       38.71       
C           178.83      21.48       39.65       
C           178.87      22.52       37.31       
C           181.04      15.36       39.04       
C           181.91      15.26       36.68       
H           178.88      16.68       37.19       
H           181.52      20.77       38.12       
H           184.38      15.22       38.6        
H           183.58      20.18       38.88       
H           175.91      22.23       38.26       
H           176.34      17.38       37.39       
H           179.85      21.66       39.91       
H           178.22      22.37       39.88       
H           178.55346   20.61492    40.25272    
H           179.89      22.95       37.56       
H           178.29      23.34       37.64       
H           178.74994   22.32931    36.24355    
H           181.4       14.26       36.9        
H           182.95      14.92       36.5        
H           181.49238   15.63515    35.74567    
H           179.96      15.27       38.7        
H           181.47      14.31       39.17       
H           181.13284   15.85992    40.00414    
H           172.97      21.83       37.71       
H           187.12      15.95       39.25       
S           173.43      18.26       37.5        
C           173.4       20.8        37.62       
C           172.55      19.76       37.56       
C           191.63      18.5        40.68       
C           191.01      17.28       41.04       
C           190.79      19.47       40.17       
N           191.61      16.17       41.5        
N           189.12      15.93       41.15       
S           190.36      15.1        41.69       
H           188.8       20.14       39.4        
H           191.19      20.39       40.02       
C           189.39      19.27       39.81       
C           189.6       17.12       40.82       
C           188.73      18.13       40.23       
C           201.89      24.43       51.23       
C           201.86      23.07       51.02       
S           201.43      25.25       49.72       
C           199.16      20.59       46.2        
C           199.28      21.95       46.15       
C           198.81      22.73       45.09       
C           198.11      22.07       44.1        
C           197.87      20.68       44.29       
C           198.49      19.87       45.24       
C           197.29      22.7        42.99       
C           196.67      21.39       42.44       
C           196.98      20.25       43.25       
C           199.8       19.91       47.4        
C           200.14      21.14       48.22       
C           199.94      22.3        47.44       
C           195.77      21.34       41.38       
C           194.9       20.27       41.41       
C           195.22      19.12       42.2        
C           196.33      19.04       43.02       
C           200.8       21.35       49.43       
C           201.23      22.59       49.8        
C           200.86      23.72       49.02       
C           200.27      23.58       47.83       
C           196.22      23.68       43.47       
C           198.26      23.35       41.95       
C           198.7       18.97       48.05       
C           201.01      19.18       46.78       
H           198.32      18.8        45.29       
H           198.96      23.78       45.22       
H           200.9       20.57       50.11       
H           200.18      24.39       47.09       
H           195.45      22.27       40.82       
H           196.56      18.19       43.66       
H           195.73      24.09       42.62       
H           196.73      24.47       43.85       
H           195.41686   23.33678    44.12212    
H           198.78      24.09       42.45       
H           197.76      23.89       41.12       
H           199.01071   22.65649    41.57107    
H           200.69      18.29       46.24       
H           201.42      19.93       46.07       
H           201.76634   18.76401    47.44558    
H           198.62      18.13       47.37       
H           197.73      19.43       47.96       
H           198.89842   18.66528    49.07756    
H           193.12      20.83       40.17       
H           202.11      22.37       51.78       
S           193.95      17.9        42.04       
C           193.62      20.11       40.76       
C           192.96      18.98       41.07       
C           203.29      27.06       54.34       
C           203.8       25.7        54.22       
C           202.35      27.4        53.41       
N           204.73      25.1        55.1        
N           203.78      23.55       53.36       
S           204.67      23.42       54.75       
H           201.06      26.92       51.91       
H           201.83      28.34       53.44       
C           201.94      26.54       52.39       
C           203.36      24.83       53.23       
C           202.46      25.27       52.2        
C           208.32      39.24       64.59       
C           207.18      39.33       63.81       
S           209.25      37.8        64.12       
C           205.61      35.23       59.51       
C           206.74      34.92       60.3        
C           207.42      33.69       60.22       
C           207.02      32.72       59.3        
C           205.96      33.1        58.51       
C           205.15      34.24       58.6        
C           207.63      31.35       58.99       
C           206.45      30.83       58.07       
C           205.63      31.9        57.71       
C           204.97      36.5        60.01       
C           205.96      36.96       61.1        
C           207.02      36.05       61.18       
C           206.38      29.56       57.48       
C           205.28      29.31       56.62       
C           204.48      30.37       56.24       
C           204.59      31.72       56.72       
C           205.88      38.05       61.9        
C           206.96      38.28       62.79       
C           208.04      37.34       62.91       
C           208.06      36.22       62.03       
C           208.93      31.45       58.13       
C           207.83      30.46       60.22       
C           204.92      37.46       58.79       
C           203.57      36.11       60.56       
H           204.22      34.38       58.07       
H           208.23      33.46       60.87       
H           205.04      38.7        61.84       
H           208.94      35.57       62.15       
H           206.93      28.75       57.85       
H           203.87      32.5        56.5        
H           209.77      31.6        58.74       
H           209.09      30.44       57.79       
H           208.85253   32.17538    57.32011    
H           208.65      30.9        60.78       
H           208.08      29.45       59.85       
H           206.96613   30.38274    60.88019    
H           202.9       36.12       59.71       
H           203.22      36.95       61.21       
H           203.57      35.21304    61.17933    
H           204.18      38.24       58.85       
H           204.57      36.94       57.88       
H           205.91492   37.85086    58.5768     
H           205.53      27.13       56.24       
H           206.46      40.18       63.83       
S           203.28      29.79       55.15       
C           204.94      28.04       56.02       
C           203.84      28.11       55.26       
C           208.97      41.88       68.08       
C           210.06      41.26       67.44       
C           207.76      41.7        67.49       
N           211.32      41.24       67.84       
N           211.03      39.93       65.66       
S           212.21      40.39       66.71       
H           206.55      40.68       66.02       
H           206.91      42.11       68.05       
C           207.61      40.86       66.36       
C           209.87      40.43       66.22       
C           208.61      40.21       65.66       
H           48.08       47.9        18.38       
H           209.03      42.26       69.14       
