612

C           103.96      79.23       88.17       
C           103.88      77.99       87.63       
S           102.7       79.35       89.41       
C           99.91       73.7        89.25       
C           99.64       74.95       89.83       
C           98.52       75.18       90.65       
C           97.61       74.15       90.86       
C           97.84       72.91       90.21       
C           98.96       72.66       89.37       
C           96.27       74.11       91.64       
C           95.8        72.66       91.35       
C           96.74       72.02       90.49       
C           101.08      73.7        88.26       
C           101.65      75.11       88.5        
C           100.87      75.77       89.52       
C           94.69       72.03       91.75       
C           94.36       70.75       91.28       
C           95.31       70.1        90.5        
C           96.51       70.7        90.1        
C           102.75      75.7        87.95       
C           102.99      77.05       88.21       
C           102.31      77.63       89.32       
C           101.23      77.04       90.02       
C           96.45       74.48       93.11       
C           95.21       75.04       91.07       
C           102.17      72.7        88.61       
C           100.4       73.43       86.93       
H           99.11       71.73       88.77       
H           98.43       76.06       91.28       
H           103.36      75.2        87.12       
H           100.66      77.59       90.78       
H           94.06       72.51       92.45       
H           97.19       70.16       89.48       
H           95.74       75.24       93.58       
H           97.35       75.01       93.18       
H           96.49994    73.61668    93.77354    
H           95.35       76.0        91.52       
H           94.17       74.78       91.35       
H           95.28172    75.14041    89.98701    
H           100.09      72.38       86.83       
H           99.48       73.94       86.7        
H           101.02447   73.53644    86.04298    
H           101.74      71.72       88.73       
H           102.79      72.59       87.76       
H           102.69571   73.01258    89.51223    
H           92.51       70.11       92.21       
H           104.45      77.77       86.77       
S           94.82       68.45       90.14       
C           93.28       69.84       91.51       
C           93.32       68.55       90.99       
C           105.59      82.84       86.22       
C           105.08      82.95       87.5        
C           105.81      81.56       85.78       
N           104.71      84.07       88.15       
N           104.03      82.08       89.46       
S           104.03      83.69       89.58       
H           105.24      79.62       86.0        
H           106.17      81.34       84.8        
C           105.24      80.52       86.5        
C           104.62      81.74       88.29       
C           104.61      80.46       87.7        
C           106.75      94.08       74.26       
C           107.01      92.75       74.15       
S           106.59      94.56       75.93       
C           107.47      88.99       78.85       
C           107.15      90.35       79.26       
C           106.98      90.76       80.57       
C           107.03      89.71       81.56       
C           107.17      88.36       81.13       
C           107.48      88.01       79.84       
C           106.8       89.78       83.09       
C           106.85      88.29       83.44       
C           107.09      87.48       82.29       
C           107.53      88.8        77.33       
C           107.42      90.31       76.97       
C           107.07      91.13       78.06       
C           106.6       87.73       84.68       
C           106.45      86.28       84.71       
C           106.68      85.48       83.57       
C           107.08      86.07       82.34       
C           107.44      90.83       75.67       
C           107.18      92.16       75.47       
C           106.78      92.95       76.59       
C           106.71      92.48       77.93       
C           107.97      90.62       83.74       
C           105.44      90.44       83.42       
C           108.88      88.17       76.82       
C           106.22      87.97       77.0        
H           107.54      86.96       79.61       
H           106.79      91.86       80.73       
H           107.63      90.24       74.76       
H           106.51      93.15       78.72       
H           106.36      88.37       85.59       
H           107.14      85.49       81.41       
H           107.71      90.81       84.78       
H           108.1       91.61       83.24       
H           108.87042   90.00576    83.74698    
H           105.52      91.51       83.23       
H           105.2       90.36       84.49       
H           104.60904   90.06358    82.82341    
H           106.3       86.96       77.47       
H           105.39      88.48       77.46       
H           105.99987   87.82798    75.94195    
H           109.01      87.12       77.11       
H           108.83      88.16       75.74       
H           109.76968   88.71369    77.13774    
H           105.75      85.73       86.73       
H           107.18      92.27       73.17       
S           106.38      83.77       83.72       
C           106.08      85.41       85.76       
C           106.02      84.05       85.45       
C           106.89      97.28       71.34       
C           106.51      95.94       70.96       
C           107.25      97.41       72.65       
N           106.2       95.51       69.67       
N           105.9       93.81       71.38       
S           105.74      93.91       69.73       
H           107.45      96.51       74.56       
H           107.67      98.33       73.06       
C           107.04      96.4        73.57       
C           106.42      94.9        71.92       
C           106.67      95.16       73.31       
C           109.57      109.99      61.1        
C           108.65      109.01      60.87       
S           110.69      109.45      62.32       
C           108.16      103.87      64.18       
C           109.35      104.69      64.48       
C           110.15      104.3       65.52       
C           109.76      103.15      66.27       
C           108.62      102.46      65.98       
C           107.79      102.76      64.91       
C           110.46      102.68      67.52       
C           109.5       101.55      67.95       
C           108.36      101.49      67.09       
C           107.36      104.56      63.07       
C           108.24      105.73      62.7        
C           109.41      105.86      63.52       
C           109.59      100.73      68.99       
C           108.49      99.88       69.28       
C           107.34      99.88       68.45       
C           107.22      100.7       67.29       
C           107.95      106.73      61.8        
C           108.74      107.85      61.74       
C           109.89      107.96      62.54       
C           110.29      106.93      63.4        
C           111.76      101.99      67.22       
C           110.67      103.84      68.58       
C           107.29      103.65      61.84       
C           105.97      105.05      63.54       
H           106.85      102.24      64.63       
H           111.07      104.85      65.81       
H           107.16      106.55      61.13       
H           111.15      107.04      64.02       
H           110.32      100.96      69.77       
H           106.31      100.78      66.72       
H           112.3       101.88      68.22       
H           112.36      102.65      66.56       
H           111.6841    100.99636   66.77838    
H           111.26      104.69      68.14       
H           111.03      103.42      69.5        
H           109.72214   104.28781   68.87854    
H           105.25      104.28      63.65       
H           105.72      105.73      62.76       
H           105.98411   105.57931   64.49275    
H           106.87      102.71      62.13       
H           106.49      104.05      61.2        
H           108.24731   103.46144   61.35409    
H           109.13      98.68       70.99       
H           107.88      109.17      60.15       
S           106.08      98.75       69.0        
C           108.35      98.93       70.28       
C           107.2       98.27       70.27       
C           110.45      113.35      58.24       
C           110.91      113.33      59.56       
C           109.87      112.18      57.93       
N           111.55      114.3       60.25       
N           111.08      112.6       61.74       
S           111.8       114.04      61.8        
H           108.99      110.22      58.46       
H           109.61      112.06      56.91       
C           109.51      111.1       58.85       
C           110.58      112.29      60.5        
C           109.84      111.07      60.17       
C           117.14      117.32      44.09       
C           115.88      116.89      44.24       
S           117.9       117.54      45.67       
C           112.92      116.98      49.55       
C           114.31      117.23      49.6        
C           115.0       117.45      50.78       
C           114.36      117.14      51.92       
C           112.98      116.73      51.89       
C           112.23      116.62      50.7        
C           114.98      116.81      53.27       
C           113.69      116.47      54.09       
C           112.58      116.37      53.28       
C           112.41      116.65      48.13       
C           113.66      116.89      47.33       
C           114.74      117.26      48.2        
C           113.6       116.07      55.38       
C           112.36      115.54      55.83       
C           111.26      115.38      54.97       
C           111.35      115.76      53.6        
C           114.07      116.79      46.0        
C           115.35      117.06      45.57       
C           116.35      117.34      46.48       
C           116.09      117.47      47.82       
C           115.97      115.66      53.3        
C           115.58      118.09      53.83       
C           112.02      115.11      48.0        
C           111.16      117.56      47.79       
H           111.25      116.24      50.74       
H           116.01      117.75      50.87       
H           113.36      116.55      45.25       
H           116.85      117.77      48.59       
H           114.52      116.04      56.01       
H           110.54      115.52      52.92       
H           116.35      115.51      54.31       
H           116.7       115.95      52.56       
H           115.51201   114.73663   52.94542    
H           116.53      118.32      53.2        
H           115.94      117.86      54.8        
H           114.896     118.92913   53.95693    
H           110.31      117.16      48.39       
H           111.26      118.58      48.19       
H           110.90606   117.49651   46.7319     
H           111.79      114.87      46.96       
H           111.08      114.95      48.57       
H           112.71763   114.39123   48.42985    
H           112.91      114.83      57.85       
H           115.33      116.47      43.39       
S           109.94      114.51      55.74       
C           112.15      114.84      57.05       
C           110.91      114.23      57.18       
C           119.56      118.33      40.56       
C           118.6       117.29      40.5        
C           119.77      118.75      41.85       
N           118.23      116.43      39.5        
N           117.15      115.81      41.57       
S           117.16      115.35      40.01       
H           119.4       118.79      43.97       
H           120.54      119.4       42.04       
C           119.1       118.31      43.03       
C           117.9       116.88      41.68       
C           118.09      117.43      42.94       
C           133.2       120.36      30.95       
C           132.35      119.28      30.83       
S           132.44      121.58      31.97       
C           127.09      118.71      34.1        
C           127.73      119.95      34.2        
C           127.28      120.95      35.05       
C           126.15      120.73      35.84       
C           125.46      119.48      35.71       
C           125.86      118.48      34.82       
C           125.4       121.59      36.91       
C           124.2       120.74      37.33       
C           124.3       119.45      36.63       
C           127.93      117.75      33.16       
C           129.13      118.66      32.74       
C           129.01      119.9       33.43       
C           123.2       121.04      38.21       
C           122.27      120.06      38.49       
C           122.42      118.78      37.76       
C           123.4       118.42      36.85       
C           130.15      118.46      31.84       
C           131.19      119.37      31.62       
C           131.08      120.57      32.39       
C           130.04      120.87      33.25       
C           126.27      121.95      38.13       
C           124.86      122.94      36.27       
C           128.4       116.51      33.93       
C           127.28      117.41      31.82       
H           125.48      117.44      34.91       
H           127.84      121.89      35.18       
H           130.3       117.49      31.41       
H           130.05      121.85      33.76       
H           123.15      122.02      38.64       
H           123.43      117.49      36.25       
H           125.91      122.95      38.46       
H           127.29      122.17      37.73       
H           126.38529   121.0925    38.79294    
H           125.83      123.42      35.95       
H           124.43      123.54      36.99       
H           124.24268   122.72713   35.39724    
H           127.87      116.6       31.32       
H           127.35      118.39      31.25       
H           126.23372   117.14674   31.97525    
H           128.3       115.67      33.19       
H           127.6       116.17      34.63       
H           129.40251   116.6432    34.33661    
H           120.93      120.73      40.09       
H           132.57      118.36      30.3        
S           121.16      117.66      38.32       
C           121.15      119.96      39.4        
C           120.47      118.8       39.46       
C           137.29      121.47      29.58       
C           136.49      120.53      28.83       
C           136.65      122.01      30.66       
N           136.78      119.99      27.61       
N           134.51      119.25      28.52       
S           135.48      119.05      27.14       
H           135.02      122.1       32.02       
H           137.13      122.73      31.26       
C           135.34      121.7       31.06       
C           135.16      120.17      29.29       
C           134.52      120.7       30.45       
C           152.67      119.5       34.34       
C           152.23      118.78      33.19       
S           151.57      120.82      34.74       
C           147.0       120.23      30.33       
C           147.58      121.25      31.22       
C           146.79      122.41      31.49       
C           145.48      122.48      30.98       
C           144.96      121.46      30.2        
C           145.7       120.32      29.92       
C           144.3       123.29      31.45       
C           143.11      122.78      30.6        
C           143.49      121.54      30.05       
C           148.0       119.14      30.2        
C           149.12      119.57      31.16       
C           148.82      120.84      31.78       
C           141.81      123.22      30.57       
C           140.82      122.41      30.05       
C           141.18      121.12      29.63       
C           142.45      120.64      29.61       
C           150.3       118.93      31.51       
C           151.14      119.42      32.56       
C           150.69      120.59      33.22       
C           149.61      121.38      32.81       
C           144.09      123.06      32.99       
C           144.59      124.77      31.13       
C           147.34      117.79      30.66       
C           148.51      118.88      28.76       
H           145.36      119.53      29.26       
H           147.15      123.15      32.22       
H           150.45      117.92      31.13       
H           149.32      122.19      33.44       
H           141.53      124.24      30.93       
H           142.66      119.64      29.2        
H           143.71      123.99      33.39       
H           145.0       122.78      33.53       
H           143.3808    122.25952   33.20065    
H           145.45      125.06      31.78       
H           143.85      125.52      31.34       
H           144.95499   124.95249   30.11927    
H           148.15      117.85      28.48       
H           149.62      118.9       28.76       
H           148.22769   119.65808   28.05078    
H           146.8       117.33      29.92       
H           148.1       117.0       30.84       
H           146.7071    117.83923   31.54606    
H           138.97      123.71      30.06       
H           152.63      117.82      32.84       
S           139.77      120.24      29.16       
C           139.44      122.71      29.81       
C           138.71      121.66      29.36       
C           155.19      118.14      37.64       
C           155.42      117.67      36.34       
C           154.18      118.99      37.8        
N           156.38      116.82      35.92       
N           154.94      117.58      34.12       
S           156.04      116.35      34.37       
H           152.57      120.1       37.09       
H           153.83      119.17      38.82       
C           153.4       119.46      36.79       
C           154.66      118.17      35.27       
C           153.57      119.16      35.45       
C           157.59      104.46      45.23       
C           156.49      105.28      45.2        
S           158.97      105.41      44.63       
C           156.4       111.22      44.03       
C           157.66      110.62      43.87       
C           158.74      111.32      43.18       
C           158.45      112.54      42.56       
C           157.17      113.06      42.84       
C           156.18      112.52      43.66       
C           159.28      113.4       41.62       
C           158.31      114.62      41.55       
C           157.06      114.27      42.09       
C           155.37      110.16      44.52       
C           156.2       108.9       44.64       
C           157.55      109.18      44.14       
C           158.44      115.58      40.58       
C           157.24      116.22      40.19       
C           155.99      115.94      40.85       
C           155.92      114.97      41.86       
C           155.72      107.66      44.95       
C           156.69      106.62      44.9        
C           158.04      106.86      44.53       
C           158.44      108.13      44.1        
C           160.65      113.82      42.28       
C           159.45      112.79      40.17       
C           154.67      110.5       45.9        
C           154.26      109.83      43.48       
H           155.25      112.97      43.81       
H           159.77      110.85      43.13       
H           154.73      107.53      45.37       
H           159.49      108.29      43.83       
H           159.36      115.82      40.11       
H           154.95      114.66      42.21       
H           161.32      113.01      42.55       
H           161.21      114.33      41.48       
H           160.56072   114.45984   43.15792    
H           158.49      112.47      39.74       
H           159.85      113.51      39.5        
H           160.10689   111.92121   40.21238    
H           153.63      109.05      43.89       
H           154.63      109.5       42.58       
H           153.59274   110.65178   43.22012    
H           153.77      111.06      45.81       
H           154.36      109.62      46.45       
H           155.29415   111.10287   46.55961    
H           157.78      117.32      38.34       
H           155.56      104.92      45.58       
S           154.71      116.88      40.13       
C           156.98      117.08      39.05       
C           155.72      117.54      38.86       
C           158.08      100.12      45.24       
C           156.77      100.74      45.43       
C           159.15      101.05      45.28       
N           155.63      100.08      45.22       
N           155.37      102.51      45.78       
S           154.49      101.18      45.35       
H           159.96      103.0       45.45       
H           160.12      100.62      45.08       
C           159.01      102.46      45.37       
C           156.67      102.17      45.51       
C           157.79      103.07      45.47       
C           162.82      84.04       43.74       
C           163.47      85.1        43.16       
S           161.32      84.54       44.45       
C           161.54      90.92       43.49       
C           160.62      89.96       43.92       
C           159.32      90.34       44.2        
C           159.03      91.69       44.24       
C           160.01      92.69       43.85       
C           161.23      92.25       43.4        
C           157.73      92.42       44.44       
C           158.13      93.9        44.34       
C           159.5       94.04       44.11       
C           162.82      90.2        43.04       
C           162.47      88.73       43.26       
C           161.21      88.6        43.88       
C           157.35      95.05       44.56       
C           157.96      96.35       44.63       
C           159.37      96.46       44.37       
C           160.11      95.33       43.97       
C           163.23      87.6        42.96       
C           162.83      86.34       43.4        
C           161.58      86.25       43.97       
C           160.76      87.32       44.3        
C           156.8       92.07       43.27       
C           157.03      92.16       45.77       
C           163.01      90.47       41.5        
C           164.07      90.55       43.91       
H           161.93      93.01       43.05       
H           158.52      89.62       44.48       
H           164.22      87.64       42.49       
H           159.8       87.16       44.9        
H           156.25      95.04       44.75       
H           161.13      95.42       43.71       
H           155.75      92.27       43.57       
H           156.9       91.02       43.02       
H           156.98737   92.58165    42.32596    
H           156.57      91.19       45.66       
H           156.16      92.74       45.79       
H           157.71757   92.2746     46.60798    
H           164.08      91.58       43.75       
H           163.94      90.46       44.99       
H           165.03243   90.18818    43.54818    
H           164.09      90.6        41.27       
H           162.57      91.33       41.18       
H           162.50146   89.72132    40.89258    
H           156.4       97.73       45.29       
H           164.4       85.03       42.68       
S           159.92      98.13       44.47       
C           157.42      97.63       44.99       
C           158.33      98.68       44.92       
C           163.54      79.72       43.57       
C           164.29      80.55       42.67       
C           162.82      80.36       44.51       
N           165.17      80.16       41.77       
N           164.68      82.63       41.67       
S           165.62      81.47       40.93       
H           161.89      82.11       45.19       
H           162.27      79.8        45.25       
C           162.55      81.77       44.46       
C           164.13      82.01       42.72       
C           163.16      82.64       43.64       
C           163.65      62.95       44.26       
C           162.53      63.7        44.6        
S           164.92      64.02       43.74       
C           162.38      69.82       44.37       
C           163.64      69.22       44.06       
C           164.83      70.02       43.83       
C           164.57      71.37       43.58       
C           163.33      71.92       43.85       
C           162.26      71.15       44.35       
C           165.66      72.46       43.37       
C           164.79      73.7        43.37       
C           163.46      73.37       43.71       
C           161.35      68.72       44.5        
C           162.2       67.48       44.55       
C           163.53      67.8        44.21       
C           165.26      74.98       43.23       
C           164.39      76.04       43.41       
C           163.07      75.74       43.79       
C           162.57      74.4        43.95       
C           161.77      66.12       44.83       
C           162.74      65.12       44.55       
C           163.97      65.46       44.02       
C           164.43      66.77       44.02       
C           166.71      72.56       44.51       
C           166.47      72.47       42.06       
C           160.53      68.92       45.83       
C           160.35      68.6        43.3        
H           161.28      71.6        44.69       
H           165.83      69.6        43.83       
H           160.79      65.87       45.13       
H           165.41      67.05       43.62       
H           166.28      75.1        42.92       
H           161.57      74.19       44.22       
H           167.39      71.72       44.31       
H           167.17      73.52       44.32       
H           166.3042    72.52561    45.52106    
H           165.98      72.9        41.28       
H           167.28      73.15       42.19       
H           166.86357   71.48607    41.80491    
H           159.65      67.77       43.42       
H           160.9       68.43       42.42       
H           159.76173   69.51431    43.22204    
H           159.47      68.75       45.77       
H           160.47      70.0        45.92       
H           161.06093   68.58817    46.72225    
H           165.57      77.77       42.83       
H           161.51      63.29       44.84       
S           162.28      77.32       44.16       
C           164.62      77.43       43.22       
C           163.64      78.26       43.57       
C           164.48      58.7        44.57       
C           163.48      59.29       45.39       
C           164.99      59.56       43.67       
N           162.8       58.59       46.24       
N           162.29      61.14       46.27       
S           161.85      59.72       46.98       
H           165.14      61.48       42.74       
H           165.78      59.24       43.05       
C           164.67      60.97       43.54       
C           163.1       60.66       45.3        
C           163.79      61.52       44.41       
C           174.02      45.09       43.89       
C           173.88      45.98       42.95       
S           172.64      45.04       44.93       
C           169.78      50.54       42.94       
C           169.56      49.58       44.0        
C           168.5       49.79       44.97       
C           167.73      50.92       44.96       
C           167.98      51.85       43.94       
C           169.01      51.69       42.99       
C           166.22      51.2        45.51       
C           166.13      52.65       45.13       
C           167.18      53.02       44.18       
C           170.97      50.09       42.08       
C           171.11      48.65       42.62       
C           170.53      48.45       43.87       
C           165.18      53.61       45.47       
C           165.39      55.02       45.14       
C           166.39      55.23       44.18       
C           167.3       54.32       43.63       
C           172.23      47.89       42.27       
C           172.74      46.89       43.15       
C           171.98      46.5        44.3        
C           170.92      47.41       44.75       
C           165.25      50.23       44.76       
C           166.13      51.04       47.01       
C           170.7       50.11       40.53       
C           172.3       50.8        42.37       
H           169.14      52.45       42.18       
H           168.31      49.02       45.62       
H           172.83      48.16       41.4        
H           170.28      47.17       45.62       
H           164.28      53.45       45.98       
H           168.17      54.64       43.14       
H           165.36      49.13       45.0        
H           165.52      50.24       43.66       
H           164.20931   50.55346    44.7811     
H           165.99      50.0        47.34       
H           165.2       51.47       47.23       
H           166.87502   51.58781    47.58702    
H           173.04      50.51       41.58       
H           172.79      50.43       43.29       
H           172.33459   51.88628    42.45303    
H           171.42      49.46       39.97       
H           170.83      51.11       40.18       
H           169.72179   49.7144     40.25668    
H           163.78      56.31       46.04       
H           174.61      46.09       42.13       
S           166.42      56.9        43.73       
C           164.6       56.23       45.36       
C           165.04      57.33       44.68       
C           177.26      42.14       44.44       
C           177.49      43.42       43.82       
C           176.02      42.04       44.89       
N           178.63      43.71       43.28       
N           176.84      45.4        42.84       
S           178.45      45.18       42.55       
H           173.97      42.6        44.98       
H           175.8       41.11       45.47       
C           174.94      42.98       44.74       
C           176.46      44.37       43.58       
C           175.1       44.15       44.11       
H           92.46       68.1        90.56       
H           178.11      41.54       44.81       
