612

C           11.11       103.01      86.97       
C           12.15       103.87      87.03       
S           10.04       103.28      88.35       
C           12.52       108.41      91.03       
C           11.63       107.38      91.47       
C           10.6        107.65      92.43       
C           10.6        108.88      93.08       
C           11.67       109.8       92.78       
C           12.56       109.61      91.72       
C           9.87        109.3       94.39       
C           10.38       110.72      94.57       
C           11.4        111.01      93.65       
C           13.54       107.84      89.98       
C           12.88       106.53      89.65       
C           11.72       106.26      90.5        
C           10.0        111.59      95.6        
C           10.55       112.88      95.62       
C           11.44       113.25      94.63       
C           11.91       112.35      93.63       
C           13.13       105.75      88.57       
C           12.22       104.68      88.24       
C           11.07       104.48      89.11       
C           10.91       105.2       90.31       
C           8.35        109.26      94.2        
C           10.26       108.59      95.73       
C           13.83       108.87      88.89       
C           14.83       107.59      90.78       
H           13.27       110.39      91.49       
H           9.75        107.0       92.49       
H           13.95       106.05      87.9        
H           9.93        104.97      90.85       
H           9.3         111.4       96.4        
H           12.67       112.55      92.85       
H           7.93        108.29      94.09       
H           7.8         109.71      95.08       
H           8.00566     109.8069    93.32226    
H           11.17       109.01      95.96       
H           9.58        108.93      96.48       
H           10.36473    107.50777   95.6532     
H           15.19       108.54      91.1        
H           14.63       106.99      91.68       
H           15.66875    107.16022   90.23238    
H           14.55       109.66      89.31       
H           14.48       108.36      88.18       
H           12.97428    109.31166   88.37933    
H           9.86        113.73      97.52       
H           12.91       103.98      86.25       
S           11.97       114.9       94.85       
C           10.4        113.89      96.58       
C           11.0        115.05      96.26       
C           9.58        100.67      83.73       
C           9.41        100.2       85.1        
C           10.13       101.91      83.58       
N           8.85        99.06       85.52       
N           9.81        100.31      87.39       
S           8.82        99.03       87.18       
H           11.18       103.56      84.36       
H           10.18       102.27      82.54       
C           10.7        102.66      84.6        
C           10.02       100.95      86.19       
C           10.67       102.18      85.87       
C           4.94        92.51       69.89       
C           5.47        91.9        71.02       
S           4.63        94.22       70.14       
C           6.9         94.73       76.18       
C           6.13        95.55       75.29       
C           5.91        96.92       75.5        
C           6.48        97.5        76.65       
C           7.31        96.75       77.53       
C           7.53        95.35       77.3        
C           5.99        98.69       77.49       
C           7.12        98.8        78.53       
C           7.78        97.64       78.66       
C           6.82        93.25       75.76       
C           6.19        93.39       74.41       
C           5.85        94.74       74.12       
C           7.32        99.88       79.36       
C           8.16        99.72       80.46       
C           8.72        98.42       80.67       
C           8.6         97.39       79.72       
C           6.1         92.45       73.41       
C           5.57        92.78       72.16       
C           5.17        94.12       71.82       
C           5.34        95.1        72.84       
C           6.0         99.96       76.55       
C           4.62        98.51       78.16       
C           8.33        92.7        75.75       
C           5.88        92.43       76.73       
H           8.12        94.71       77.9        
H           5.36        97.54       74.8        
H           6.42        91.43       73.62       
H           5.11        96.15       72.63       
H           6.86        100.84      79.17       
H           9.1         96.42       79.85       
H           5.54        100.83      77.03       
H           5.33        99.79       75.7        
H           7.01184     100.25011   76.26697    
H           4.78        97.98       79.13       
H           4.36        99.56       78.44       
H           3.78305     98.12265    77.57898    
H           5.59        91.44       76.39       
H           4.91        92.92       76.74       
H           6.14767     92.40106    77.78623    
H           8.71        92.69       76.75       
H           8.25        91.69       75.36       
H           8.9363      93.29187    75.0643     
H           8.15        101.63      81.54       
H           5.87        90.91       71.13       
S           9.57        98.35       82.25       
C           8.45        100.59      81.52       
C           9.0         100.03      82.58       
C           3.93        90.85       65.89       
C           4.59        90.07       66.86       
C           3.64        92.06       66.34       
N           4.98        88.78       66.68       
N           5.61        89.57       68.85       
S           5.8         88.21       68.0        
H           3.89        93.61       67.75       
H           3.06        92.83       65.77       
C           4.03        92.55       67.63       
C           5.02        90.56       68.13       
C           4.74        91.93       68.55       
C           0.8         89.75       49.53       
C           0.23        90.67       50.36       
S           1.79        88.63       50.48       
C           1.61        90.98       56.32       
C           2.19        89.81       55.68       
C           2.94        88.87       56.36       
C           3.15        89.07       57.75       
C           2.51        90.14       58.39       
C           1.87        91.19       57.7        
C           4.04        88.24       58.71       
C           3.55        88.87       59.99       
C           2.65        89.99       59.82       
C           0.64        91.71       55.35       
C           0.92        91.08       54.03       
C           1.83        89.96       54.23       
C           4.03        88.64       61.26       
C           3.52        89.43       62.35       
C           2.66        90.58       62.07       
C           2.2         90.85       60.8        
C           0.42        91.45       52.78       
C           0.62        90.56       51.73       
C           1.52        89.53       51.91       
C           2.11        89.17       53.1        
C           3.74        86.75       58.8        
C           5.49        88.52       58.59       
C           -0.91       91.56       55.55       
C           1.16        93.21       55.14       
H           1.44        91.95       58.3        
H           3.39        88.04       55.91       
H           -0.02       92.41       52.56       
H           2.8         88.38       53.12       
H           4.8         87.92       61.35       
H           1.62        91.72       60.57       
H           4.17        86.35       57.87       
H           4.33        86.29       59.64       
H           2.67419     86.52263    58.82132    
H           5.65        89.6        58.83       
H           6.06        87.98       59.32       
H           5.93385     88.25806    57.62954    
H           0.38        93.61       54.46       
H           2.06        93.41       54.64       
H           1.02719     93.79715    56.04869    
H           -1.37       92.3        56.21       
H           -1.43       91.74       54.62       
H           -1.2231     90.59885    55.95776    
H           4.49        88.58       64.15       
H           -0.39       91.42       49.93       
S           2.43        91.5        63.57       
C           3.84        89.35       63.74       
C           3.46        90.47       64.52       
C           0.51        89.99       45.19       
C           1.27        88.96       45.72       
C           -0.03       90.87       46.06       
N           1.8         87.94       45.03       
N           1.91        87.58       47.51       
S           2.36        86.81       46.12       
H           -0.39       91.52       48.13       
H           -0.69       91.72       45.72       
C           0.1         90.75       47.48       
C           1.35        88.78       47.18       
C           0.76        89.75       48.09       
C           -3.95       95.13       30.36       
C           -3.86       95.87       31.47       
S           -4.35       93.46       30.87       
C           -3.46       93.73       37.04       
C           -3.59       92.73       36.07       
C           -3.51       91.35       36.32       
C           -3.06       90.92       37.57       
C           -2.83       91.99       38.5        
C           -3.1        93.34       38.34       
C           -2.38       89.57       38.01       
C           -1.83       89.96       39.4        
C           -2.15       91.36       39.69       
C           -3.39       95.14       36.48       
C           -3.75       94.82       35.1        
C           -3.79       93.44       34.84       
C           -1.15       89.26       40.37       
C           -0.78       89.81       41.59       
C           -0.97       91.17       41.76       
C           -1.69       91.97       40.86       
C           -3.77       95.69       34.02       
C           -3.94       95.15       32.71       
C           -4.08       93.79       32.54       
C           -3.99       92.89       33.6        
C           -3.5        88.52       38.12       
C           -1.17       89.02       37.15       
C           -4.34       96.19       37.07       
C           -1.89       95.62       36.48       
H           -2.88       94.05       39.13       
H           -3.61       90.61       35.48       
H           -3.57       96.71       34.25       
H           -4.05       91.8        33.39       
H           -0.98       88.19       40.17       
H           -1.77       93.05       40.98       
H           -3.05       87.56       37.82       
H           -4.27       88.64       37.29       
H           -3.98924    88.45109    39.09159    
H           -0.22       89.57       37.42       
H           -0.91       88.01       37.47       
H           -1.27052    89.07026    36.06581    
H           -1.66       96.05       35.51       
H           -1.37       94.66       36.5        
H           -1.57617    96.28333    37.28598    
H           -4.13       96.35       38.16       
H           -4.16       97.18       36.6        
H           -5.3839     95.97167    36.84484    
H           0.27        88.19       42.73       
H           -3.7        96.93       31.39       
S           -0.5        91.7        43.33       
C           -0.05       89.25       42.74       
C           0.13        90.14       43.75       
C           -2.94       95.7        26.1        
C           -2.58       96.69       27.04       
C           -3.84       94.78       26.54       
N           -1.81       97.78       26.92       
N           -2.57       97.58       29.17       
S           -1.74       98.61       28.33       
H           -4.57       93.68       28.25       
H           -4.14       94.02       25.88       
C           -4.16       94.6        27.97       
C           -3.14       96.64       28.39       
C           -3.79       95.48       28.94       
C           9.22        88.75       17.25       
C           8.18        88.18       17.79       
S           8.94        90.5        17.16       
C           3.49        90.85       20.54       
C           4.47        91.72       20.02       
C           4.35        93.09       20.24       
C           3.22        93.57       20.89       
C           2.3         92.65       21.44       
C           2.42        91.29       21.22       
C           2.81        95.01       21.09       
C           1.58        94.77       21.96       
C           1.22        93.42       22.05       
C           4.04        89.45       20.56       
C           5.25        89.61       19.67       
C           5.59        90.99       19.43       
C           0.82        95.75       22.66       
C           -0.38       95.38       23.33       
C           -0.75       94.0        23.39       
C           0.07        93.0        22.73       
C           6.14        88.58       19.25       
C           7.23        89.04       18.49       
C           7.54        90.39       18.27       
C           6.76        91.4        18.8        
C           3.9         95.74       21.84       
C           2.41        95.75       19.75       
C           4.44        89.05       22.06       
C           3.06        88.43       20.05       
H           1.78        90.58       21.61       
H           5.17        93.7        19.92       
H           6.13        87.49       19.47       
H           7.02        92.43       18.61       
H           1.13        96.75       22.59       
H           -0.07       91.93       22.83       
H           4.8         95.6        21.24       
H           3.7         96.83       21.94       
H           4.06693     95.36259    22.84886    
H           1.89        94.99       19.13       
H           1.68        96.61       19.87       
H           3.21133     96.16472    19.13846    
H           2.61        87.87       20.87       
H           3.55        87.69       19.46       
H           2.42626     88.83205    19.25953    
H           3.49        88.83       22.52       
H           5.08        88.19       22.01       
H           4.8857      89.87872    22.61016    
H           -1.0        97.09       24.57       
H           8.11        87.04       17.88       
S           -2.2        93.75       24.38       
C           -1.24       96.1        24.21       
C           -2.26       95.45       24.78       
C           13.1        86.88       16.35       
C           12.64       88.05       15.58       
C           12.15       86.37       17.14       
N           13.37       88.62       14.68       
N           11.2        89.76       15.02       
S           12.49       89.85       13.99       
H           10.34       86.68       18.31       
H           12.42       85.57       17.82       
C           10.94       86.99       17.46       
C           11.37       88.68       15.77       
C           10.4        88.09       16.69       
C           20.37       73.65       11.89       
C           20.08       73.75       13.27       
S           20.68       75.26       11.14       
C           18.84       79.18       15.73       
C           19.38       79.23       14.45       
C           19.52       80.38       13.71       
C           19.05       81.57       14.28       
C           18.44       81.63       15.53       
C           18.43       80.4        16.3        
C           18.59       82.77       13.47       
C           18.0        83.71       14.58       
C           17.87       82.95       15.78       
C           18.88       77.8        16.32       
C           19.39       76.99       15.11       
C           19.71       77.85       14.1        
C           17.16       84.79       14.32       
C           16.24       85.13       15.27       
C           16.17       84.45       16.47       
C           17.05       83.46       16.84       
C           19.56       75.62       14.98       
C           19.96       75.09       13.73       
C           20.28       75.99       12.67       
C           20.22       77.38       12.86       
C           19.65       83.49       12.67       
C           17.44       82.33       12.49       
C           19.99       77.84       17.35       
C           17.63       77.2        16.92       
H           18.08       80.42       17.36       
H           19.98       80.42       12.72       
H           19.39       74.92       15.81       
H           20.47       78.02       12.12       
H           17.23       85.47       13.44       
H           16.91       82.93       17.75       
H           19.22       84.32       12.2        
H           20.08       82.84       11.91       
H           20.44749    83.77187    13.3575     
H           16.69       81.74       13.07       
H           17.03       83.2        12.03       
H           17.74263    81.67094    11.67627    
H           17.24       77.85       17.66       
H           17.74       76.21       17.48       
H           16.85187    77.00205    16.18282    
H           19.75       77.31       18.21       
H           20.04       78.84       17.67       
H           20.98451    77.55787    17.00439    
H           15.1        86.69       14.25       
H           19.9        72.81       13.87       
S           14.85       85.03       17.45       
C           15.24       86.19       15.18       
C           14.34       86.17       16.17       
C           20.42       70.19       9.03        
C           20.35       69.94       10.45       
C           20.53       71.52       8.67        
N           20.27       68.73       11.1        
N           20.44       70.6        12.71       
S           20.52       68.96       12.73       
H           20.59       73.5        9.19        
H           20.65       71.8        7.67        
C           20.58       72.61       9.66        
C           20.29       71.04       11.43       
C           20.36       72.47       11.02       
C           25.7        58.25       -1.01       
C           25.2        58.09       0.24        
S           25.52       59.94       -1.56       
C           22.61       62.45       3.56        
C           22.95       62.8        2.19        
C           22.71       64.1        1.76        
C           22.34       65.05       2.7         
C           21.9        64.7        3.96        
C           22.08       63.36       4.47        
C           22.1        66.59       2.46        
C           21.55       66.99       3.83        
C           21.58       65.88       4.7         
C           22.75       60.91       3.63        
C           23.45       60.56       2.38        
C           23.67       61.72       1.54        
C           21.19       68.26       4.33        
C           20.91       68.34       5.73        
C           20.98       67.2        6.58        
C           21.21       65.96       6.05        
C           23.86       59.38       1.98        
C           24.59       59.26       0.75        
C           24.69       60.36       -0.07       
C           24.25       61.62       0.31        
C           23.42       67.36       2.26        
C           20.94       66.88       1.42        
C           23.64       60.61       4.86        
C           21.38       60.26       3.63        
H           21.97       63.09       5.49        
H           23.1        64.32       0.83        
H           23.67       58.45       2.51        
H           24.34       62.46       -0.36       
H           21.17       69.21       3.79        
H           21.14       65.01       6.59        
H           23.91       67.15       1.34        
H           23.06       68.4        2.28        
H           24.18231    67.19915    3.02231     
H           19.99       66.42       1.78        
H           20.73       67.93       1.37        
H           21.22261    66.51967    0.43086     
H           21.49       59.15       3.5         
H           20.82       60.65       2.77        
H           20.80992    60.51337    4.52382     
H           23.12       60.68       5.79        
H           23.95       59.52       4.79        
H           24.55865    61.19133    4.93895     
H           20.74       70.42       6.12        
H           25.24       57.15       0.78        
S           20.65       67.51       8.26        
C           20.71       69.46       6.56        
C           20.59       69.25       7.93        
C           28.08       55.18       -3.04       
C           27.68       56.39       -3.78       
C           27.7        55.21       -1.74       
N           27.85       56.55       -5.13       
N           26.49       58.26       -4.07       
S           27.06       57.91       -5.57       
H           26.73       56.02       -0.04       
H           27.86       54.34       -1.11       
C           26.99       56.18       -1.07       
C           26.89       57.41       -3.14       
C           26.51       57.28       -1.75       
C           29.91       39.28       -7.56       
C           29.32       40.24       -8.37       
S           30.48       40.06       -6.09       
C           28.8        46.11       -6.86       
C           29.55       45.29       -5.93       
C           30.18       45.81       -4.83       
C           29.97       47.13       -4.53       
C           29.21       47.91       -5.41       
C           28.61       47.42       -6.58       
C           30.6        47.91       -3.39       
C           29.92       49.28       -3.63       
C           29.1        49.21       -4.8        
C           28.36       45.33       -8.1        
C           28.86       43.93       -7.7        
C           29.55       43.94       -6.45       
C           30.08       50.47       -2.98       
C           29.35       51.61       -3.38       
C           28.61       51.56       -4.63       
C           28.46       50.31       -5.24       
C           28.91       42.75       -8.49       
C           29.41       41.58       -7.84       
C           30.12       41.69       -6.62       
C           30.21       42.87       -5.9        
C           30.19       47.23       -2.06       
C           32.14       47.87       -3.53       
C           26.87       45.65       -8.4        
C           29.26       45.93       -9.19       
H           28.02       48.1        -7.26       
H           30.71       45.2        -4.08       
H           28.33       42.54       -9.36       
H           30.65       42.84       -4.91       
H           30.59       50.51       -2.04       
H           27.83       50.25       -6.08       
H           30.86       47.66       -1.32       
H           30.48       46.22       -2.11       
H           29.11786    47.30915    -1.88011    
H           32.5        46.85       -3.39       
H           32.55       48.6        -2.85       
H           32.53093    48.12561    -4.51485    
H           29.18       47.0        -9.29       
H           30.21       45.86       -8.64       
H           29.30081    45.46752    -10.17618   
H           26.88       46.53       -9.09       
H           26.27       45.95       -7.51       
H           26.40794    44.8519     -8.98107    
H           29.67       53.25       -1.81       
H           28.8        40.01       -9.3        
S           27.98       53.15       -5.03       
C           29.27       52.95       -2.82       
C           28.63       53.87       -3.57       
C           30.1        35.01       -8.49       
C           30.59       35.96       -9.42       
C           29.69       35.51       -7.28       
N           30.98       35.7        -10.65      
N           30.77       38.08       -10.22      
S           31.21       37.09       -11.45      
H           29.39       37.23       -6.04       
H           29.17       34.86       -6.58       
C           29.64       36.92       -7.02       
C           30.5        37.36       -9.13       
C           30.13       37.89       -7.82       
C           33.11       19.63       -13.63      
C           33.28       20.04       -12.3       
S           32.41       20.94       -14.5       
C           31.4        25.39       -10.14      
C           31.46       25.26       -11.54      
C           31.02       26.29       -12.44      
C           30.69       27.5        -11.9       
C           30.66       27.65       -10.45      
C           31.07       26.63       -9.59       
C           30.42       28.83       -12.67      
C           30.13       29.72       -11.41      
C           30.37       29.03       -10.2       
C           31.85       24.06       -9.48       
C           32.14       23.25       -10.71      
C           31.75       23.92       -11.91      
C           29.92       31.04       -11.49      
C           29.9        31.78       -10.29      
C           30.23       31.18       -9.05       
C           30.48       29.8        -9.04       
C           32.7        21.98       -10.74      
C           32.82       21.36       -11.97      
C           32.39       21.98       -13.14      
C           31.82       23.29       -13.12      
C           31.64       29.27       -13.47      
C           29.16       28.62       -13.56      
C           33.07       24.41       -8.58       
C           30.73       23.35       -8.71       
H           31.16       26.75       -8.47       
H           31.04       26.07       -13.48      
H           33.06       21.42       -9.82       
H           31.48       23.78       -13.99      
H           29.74       31.53       -12.46      
H           30.88       29.27       -8.2        
H           31.82       28.69       -14.37      
H           31.53       30.33       -13.8       
H           32.56059    29.20181    -12.89037   
H           28.45       28.02       -12.99      
H           28.67       29.54       -13.79      
H           29.35018    28.03482    -14.45972   
H           31.19       22.83       -7.89       
H           30.2        22.62       -9.39       
H           29.89624    23.91751    -8.29663    
H           33.0        25.04       -7.68       
H           33.54       23.49       -8.1        
H           33.82953    24.82881    -9.24016    
H           29.3        33.74       -10.89      
H           33.56       19.36       -11.44      
S           30.32       32.37       -7.77       
C           29.62       33.14       -10.1       
C           29.93       33.63       -8.9        
C           34.35       16.08       -15.77      
C           34.35       16.05       -14.36      
C           33.88       17.14       -16.44      
N           34.72       15.07       -13.53      
N           33.88       17.02       -12.38      
S           34.37       15.54       -11.98      
H           33.01       19.03       -16.36      
H           33.84       17.17       -17.54      
C           33.34       18.23       -15.73      
C           33.88       17.25       -13.67      
C           33.41       18.4        -14.35      
C           39.47       4.16        -26.3       
C           38.72       5.19        -26.68      
S           39.91       4.21        -24.58      
C           37.09       9.63        -22.83      
C           37.7        8.5         -22.22      
C           38.04       8.51        -20.83      
C           37.68       9.65        -20.06      
C           36.91       10.69       -20.66      
C           36.52       10.58       -22.02      
C           37.97       9.97        -18.58      
C           37.09       11.23       -18.38      
C           36.48       11.64       -19.62      
C           37.03       9.45        -24.35      
C           37.65       8.05        -24.48      
C           37.96       7.51        -23.23      
C           36.69       11.81       -17.19      
C           35.91       12.98       -17.23      
C           35.42       13.4        -18.5       
C           35.66       12.77       -19.69      
C           37.94       7.36        -25.66      
C           38.56       6.16        -25.64      
C           38.94       5.67        -24.32      
C           38.61       6.33        -23.14      
C           37.69       8.8         -17.59      
C           39.33       10.68       -18.3       
C           35.58       9.5         -24.79      
C           37.87       10.53       -25.08      
H           36.03       11.47       -22.44      
H           38.58       7.69        -20.42      
H           37.71       7.86        -26.61      
H           39.01       5.95        -22.21      
H           37.14       11.48       -16.22      
H           35.32       13.19       -20.62      
H           38.25       7.9         -17.77      
H           37.86       9.15        -16.57      
H           36.66153    8.43966     -17.61252   
H           39.11       11.64       -18.43      
H           39.53       10.69       -17.21      
H           40.18124    10.41267    -18.92612   
H           37.32       11.48       -25.03      
H           38.09       10.24       -26.14      
H           38.87778    10.646      -24.68124   
H           35.07       10.46       -24.46      
H           35.67       9.28        -25.85      
H           34.98385    8.67401     -24.40214   
H           35.93       13.81       -15.21      
H           38.29       5.3         -27.68      
S           34.45       14.84       -18.3       
C           35.65       13.94       -16.22      
C           34.91       14.99       -16.61      
C           39.68       0.47        -28.7       
C           39.83       1.77        -29.26      
C           39.52       0.49        -27.37      
N           39.74       1.99        -30.53      
N           40.04       4.07        -29.28      
S           39.91       3.63        -30.85      
H           39.33       1.52        -25.49      
H           39.45       -0.45       -26.87      
C           39.58       1.69        -26.55      
C           39.9        3.02        -28.48      
C           39.82       2.95        -27.05      
H           10.78       115.96      96.77       
H           39.44       -0.3        -29.39      
