612

C           25.42       11.31       61.7        
C           24.31       10.73       61.2        
S           25.44       13.05       61.46       
C           19.48       13.81       59.2        
C           20.62       14.61       59.55       
C           20.61       16.0        59.59       
C           19.46       16.59       59.08       
C           18.31       15.83       58.85       
C           18.29       14.45       58.9        
C           19.11       18.08       58.91       
C           17.59       17.98       58.7        
C           17.2        16.65       58.47       
C           19.87       12.34       59.23       
C           21.23       12.39       59.91       
C           21.73       13.71       59.93       
C           16.77       19.03       58.48       
C           15.48       18.75       58.04       
C           15.12       17.37       57.74       
C           15.98       16.32       57.97       
C           22.03       11.38       60.28       
C           23.34       11.67       60.68       
C           23.84       13.0        60.68       
C           23.04       14.02       60.23       
C           19.31       18.75       60.32       
C           19.82       18.78       57.74       
C           18.88       11.58       60.21       
C           19.95       11.87       57.73       
H           17.4        13.9        58.83       
H           21.55       16.58       59.9        
H           21.72       10.34       60.41       
H           23.39       14.99       60.28       
H           17.05       20.07       58.49       
H           15.69       15.29       57.87       
H           20.3        18.49       60.76       
H           19.26       19.83       60.13       
H           18.62364    18.38876    61.08584    
H           19.48       18.4        56.8        
H           19.43       19.76       57.87       
H           20.90636    18.75842    57.82633    
H           20.65       11.03       57.71       
H           20.44       12.68       57.23       
H           19.01869    11.54762    57.26434    
H           17.94       11.92       59.92       
H           19.03       10.55       59.92       
H           18.97821    11.78344    61.27633    
H           14.36       20.72       57.91       
H           24.11       9.66        61.22       
S           13.5        17.22       57.11       
C           14.35       19.64       57.7        
C           13.31       18.99       57.22       
C           28.4        9.67        64.38       
C           27.03       9.32        64.57       
C           28.67       10.5        63.33       
N           26.5        8.45        65.42       
N           24.84       9.38        63.9        
S           24.89       8.59        65.3        
H           28.08       11.59       61.7        
H           29.68       10.86       63.17       
C           27.71       11.05       62.51       
C           26.09       9.82        63.64       
C           26.39       10.79       62.64       
C           40.09       12.84       74.4        
C           40.27       12.88       73.04       
S           38.83       11.69       74.82       
C           36.58       9.91        69.2        
C           36.43       9.58        70.57       
C           35.26       9.0         71.05       
C           34.22       8.77        70.1        
C           34.45       9.04        68.74       
C           35.63       9.58        68.22       
C           32.78       8.39        70.38       
C           32.19       8.44        68.98       
C           33.19       8.87        68.09       
C           37.83       10.81       69.06       
C           38.4        10.92       70.46       
C           37.52       10.25       71.33       
C           30.9        8.19        68.55       
C           30.6        8.66        67.2        
C           31.64       9.17        66.41       
C           32.99       9.15        66.76       
C           39.26       11.9        70.91       
C           39.3        12.08       72.31       
C           38.46       11.32       73.16       
C           37.62       10.35       72.71       
C           32.8        6.97        71.12       
C           31.89       9.49        71.09       
C           38.83       10.1        68.11       
C           37.44       12.19       68.42       
H           35.86       9.65        67.18       
H           35.04       8.96        72.11       
H           40.06       12.27       70.23       
H           36.98       9.8         73.42       
H           30.12       7.97        69.29       
H           33.72       9.39        66.0        
H           33.15       7.01        72.2        
H           33.46       6.36        70.5        
H           31.87046    6.40234     71.07743    
H           31.76       10.3        70.42       
H           30.86       9.06        71.36       
H           32.37677    10.05551    71.88458    
H           37.46       12.17       67.33       
H           38.12       12.92       68.76       
H           36.52682    12.63563    68.81449    
H           38.54       10.24       67.03       
H           39.82       10.57       68.18       
H           38.96351    9.03895     68.32081    
H           28.35       8.55        67.01       
H           40.86       13.66       72.58       
S           31.1        9.6         64.82       
C           29.32       8.79        66.54       
C           29.44       9.28        65.31       
C           42.17       14.96       77.71       
C           42.58       15.13       76.4        
C           40.99       14.21       77.78       
N           43.6        15.87       76.03       
N           42.42       14.81       74.13       
S           43.56       16.0        74.42       
H           39.43       12.93       77.04       
H           40.47       14.07       78.69       
C           40.31       13.54       76.72       
C           41.86       14.43       75.31       
C           40.73       13.56       75.45       
C           50.3        21.46       90.63       
C           50.93       20.68       89.67       
S           48.58       21.34       90.46       
C           47.92       17.98       84.98       
C           47.11       18.66       85.91       
C           45.72       18.89       85.73       
C           45.18       18.16       84.67       
C           45.99       17.38       83.83       
C           47.35       17.28       83.95       
C           43.7        17.96       84.32       
C           43.81       17.04       83.08       
C           45.21       16.93       82.72       
C           49.35       18.01       85.41       
C           49.33       18.83       86.73       
C           47.97       19.14       87.02       
C           42.75       16.58       82.36       
C           43.01       16.2        81.06       
C           44.43       15.99       80.66       
C           45.5        16.23       81.55       
C           50.32       19.18       87.62       
C           50.02       19.98       88.78       
C           48.66       20.3        89.04       
C           47.64       19.84       88.19       
C           43.07       17.09       85.46       
C           42.83       19.24       84.01       
C           49.74       16.54       85.87       
C           50.28       18.65       84.37       
H           48.03       16.78       83.22       
H           45.12       19.37       86.49       
H           51.38       18.93       87.46       
H           46.67       20.19       88.31       
H           41.78       16.74       82.69       
H           46.57       16.04       81.23       
H           43.12       17.62       86.38       
H           41.96       16.88       85.37       
H           43.63785    16.17712    85.6397     
H           43.49       19.88       83.38       
H           41.92       19.12       83.42       
H           42.61747    19.84927    84.88848    
H           51.23       19.01       84.85       
H           49.82       19.46       83.84       
H           50.7308     17.95925    83.65744    
H           49.48       15.84       85.08       
H           50.79       16.48       86.22       
H           49.10421    16.13541    86.65751    
H           41.06       15.7        80.17       
H           51.99       20.51       89.6        
S           44.51       15.42       79.0        
C           42.12       15.86       80.03       
C           42.75       15.52       78.87       
C           51.75       24.03       93.97       
C           52.57       23.86       92.8        
C           50.47       23.42       93.89       
N           53.77       24.41       92.66       
N           53.08       22.85       90.74       
S           54.18       24.01       91.11       
H           49.13       22.05       92.88       
H           49.77       23.55       94.69       
C           50.01       22.65       92.74       
C           52.17       22.92       91.72       
C           50.81       22.33       91.67       
C           54.45       29.58       109.48      
C           53.54       28.58       109.11      
S           55.4        29.94       108.12      
C           52.92       26.23       103.44      
C           53.84       27.32       103.59      
C           54.53       27.83       102.47      
C           54.32       27.25       101.24      
C           53.44       26.12       101.13      
C           52.69       25.68       102.2       
C           55.24       27.18       99.97       
C           54.36       26.45       99.02       
C           53.25       25.79       99.69       
C           52.43       25.89       104.87      
C           52.79       27.1        105.66      
C           53.87       27.78       105.0       
C           54.42       26.29       97.68       
C           53.45       25.57       96.97       
C           52.38       25.0        97.65       
C           52.33       25.0        99.07       
C           52.54       27.43       107.05      
C           53.44       28.31       107.72      
C           54.54       28.87       107.05      
C           54.74       28.65       105.64      
C           55.62       28.59       99.4        
C           56.54       26.3        100.16      
C           50.91       25.76       104.93      
C           53.04       24.69       105.52      
H           51.79       25.02       102.12      
H           55.24       28.63       102.54      
H           51.81       26.95       107.66      
H           55.49       29.22       105.13      
H           55.35       26.63       97.17       
H           51.42       24.71       99.62       
H           56.23       29.08       100.17      
H           56.35       28.53       98.56       
H           54.75538    29.24544    99.29541    
H           56.25       25.2        100.14      
H           57.16       26.49       99.32       
H           57.08715    26.51044    101.07893   
H           52.33       24.1        106.1       
H           53.68       25.06       106.28      
H           53.56755    23.98422    104.87838   
H           50.71       24.79       104.45      
H           50.68       25.57       106.01      
H           50.2586     26.54314    104.54209   
H           54.07       25.56       94.82       
H           52.92       28.14       109.86      
S           51.18       24.35       96.6        
C           53.3        25.27       95.57       
C           52.17       24.67       95.2        
C           56.41       31.1        113.11      
C           55.55       29.96       113.23      
C           56.36       31.76       111.9       
N           55.49       29.11       114.25      
N           54.15       28.33       112.24      
S           54.39       27.92       113.86      
H           55.6        31.87       109.98      
H           56.94       32.68       111.82      
C           55.53       31.3        110.82      
C           54.81       29.51       112.09      
C           54.89       30.09       110.75      
C           63.12       42.92       122.4       
C           63.35       42.8        121.05      
S           62.11       41.69       123.01      
C           61.81       37.8        117.91      
C           61.36       37.87       119.26      
C           60.54       36.85       119.82      
C           60.03       35.87       118.97      
C           60.49       35.76       117.65      
C           61.37       36.75       117.08      
C           58.91       34.91       119.22      
C           58.77       34.16       117.88      
C           59.66       34.72       116.94      
C           62.64       39.07       117.56      
C           62.53       39.87       118.84      
C           61.88       39.08       119.9       
C           57.86       33.18       117.54      
C           57.85       32.79       116.17      
C           58.7        33.38       115.26      
C           59.63       34.31       115.66      
C           63.08       41.1        119.2       
C           62.86       41.54       120.48      
C           62.19       40.83       121.49      
C           61.69       39.59       121.21      
C           59.27       33.98       120.37      
C           57.56       35.58       119.5       
C           64.09       38.67       117.35      
C           62.04       39.76       116.28      
H           61.63       36.75       115.98      
H           60.11       36.93       120.81      
H           63.61       41.63       118.45      
H           61.12       39.05       121.9       
H           57.27       32.6        118.27      
H           60.21       34.71       114.89      
H           58.27       33.56       120.74      
H           59.54       34.52       121.29      
H           60.05358    33.26965    120.10637   
H           57.5        35.83       120.52      
H           56.73       34.86       119.4       
H           57.30725    36.43936    118.87895   
H           62.4        39.35       115.33      
H           62.34       40.77       116.38      
H           60.96511    39.86032    116.43048   
H           64.52       39.52       116.75      
H           64.25       37.86       116.59      
H           64.58269    38.32785    118.26011   
H           56.34       31.14       115.99      
H           63.73       43.57       120.42      
S           58.51       32.76       113.66      
C           57.06       31.81       115.52      
C           57.13       31.84       114.17      
C           63.03       46.22       125.3       
C           63.21       46.51       123.93      
C           62.98       44.92       125.59      
N           63.39       47.71       123.31      
N           63.61       45.84       121.71      
S           63.78       47.48       121.74      
H           63.04       42.89       124.92      
H           62.93       44.64       126.67      
C           63.09       43.89       124.64      
C           63.43       45.47       122.99      
C           63.22       44.08       123.3       
C           55.8        56.94       135.55      
C           55.71       55.63       135.58      
S           56.74       57.42       134.17      
C           59.07       51.76       132.46      
C           59.17       53.09       132.07      
C           59.86       53.45       130.91      
C           60.32       52.46       130.11      
C           60.32       51.14       130.5       
C           59.65       50.8        131.63      
C           61.19       52.63       128.85      
C           61.51       51.16       128.5       
C           61.0        50.3        129.49      
C           58.18       51.62       133.68      
C           57.67       53.04       133.73      
C           58.43       53.9        132.98      
C           62.17       50.66       127.44      
C           62.26       49.25       127.37      
C           61.81       48.37       128.34      
C           61.17       48.93       129.44      
C           56.71       53.47       134.65      
C           56.53       54.87       134.7       
C           57.27       55.77       133.86      
C           58.24       55.27       132.99      
C           60.55       53.31       127.62      
C           62.58       53.35       129.24      
C           57.0        50.68       133.33      
C           58.92       51.22       134.99      
H           59.53       49.75       131.89      
H           60.0        54.49       130.68      
H           56.42       52.84       135.43      
H           58.79       55.99       132.4       
H           62.6        51.21       126.57      
H           60.67       48.26       130.15      
H           61.27       53.19       126.78      
H           60.52       54.39       127.8       
H           59.60952    52.86568    127.29416   
H           62.37       54.38       129.56      
H           63.19       53.41       128.31      
H           63.12846    52.82264    130.0205    
H           58.56       50.29       135.29      
H           58.57       51.95       135.83      
H           59.98974    51.16057    134.78942   
H           57.35       49.78       132.87      
H           56.39       50.53       134.18      
H           56.29785    51.09584    132.60739   
H           63.5        49.08       125.48      
H           55.13       55.21       136.35      
S           62.07       46.72       127.84      
C           62.95       48.62       126.31      
C           62.76       47.24       126.32      
C           54.11       60.04       138.24      
C           54.24       58.67       138.69      
C           54.59       60.19       136.95      
N           53.89       58.21       139.87      
N           54.88       56.42       138.48      
S           54.22       56.66       139.98      
H           55.32       59.42       135.07      
H           54.28       61.08       136.46      
C           55.17       59.17       136.14      
C           54.84       57.61       137.8       
C           55.31       57.89       136.49      
C           44.4        72.21       144.25      
C           45.13       72.36       143.15      
S           44.7        70.67       145.01      
C           48.58       67.97       140.76      
C           47.81       67.62       141.86      
C           47.97       66.35       142.52      
C           48.74       65.39       141.9       
C           49.47       65.74       140.73      
C           49.45       67.04       140.21      
C           49.01       63.99       142.47      
C           49.89       63.51       141.3       
C           50.25       64.57       140.41      
C           48.4        69.43       140.38      
C           47.41       69.83       141.5       
C           47.15       68.77       142.41      
C           50.45       62.26       141.15      
C           51.57       62.08       140.23      
C           51.94       63.17       139.4       
C           51.25       64.4        139.43      
C           46.84       71.14       141.72      
C           46.01       71.23       142.83      
C           45.77       70.11       143.75      
C           46.35       68.9        143.49      
C           49.91       64.2        143.68      
C           47.73       63.23       142.87      
C           49.7        70.28       140.51      
C           47.73       69.72       139.0       
H           50.09       67.24       139.4       
H           47.39       66.19       143.46      
H           46.85       71.99       140.98      
H           46.05       68.04       144.26      
H           50.17       61.4        141.75      
H           51.43       65.04       138.57      
H           49.41       64.77       144.46      
H           50.74       64.8        143.33      
H           50.35592    63.29354    144.08937   
H           47.26       63.57       143.84      
H           48.08       62.22       143.14      
H           47.02264    63.10975    142.04946   
H           47.61       70.75       138.97      
H           46.71       69.33       138.91      
H           48.13387    69.21694    138.12141   
H           50.2        69.78       139.7       
H           49.44       71.29       140.25      
H           50.2555     70.25222    141.44741   
H           52.26       59.96       140.49      
H           45.06       73.3        142.58      
S           53.33       62.76       138.44      
C           52.36       60.88       139.96      
C           53.33       61.08       138.97      
C           41.23       74.44       146.17      
C           41.46       74.66       144.79      
C           41.9        73.35       146.71      
N           40.87       75.51       144.02      
N           42.86       74.44       142.95      
S           41.69       75.52       142.54      
H           43.5        71.98       146.7       
H           41.72       73.15       147.73      
C           42.98       72.72       146.12      
C           42.63       74.04       144.21      
C           43.43       73.07       144.89      
C           32.75       82.81       157.55      
C           33.63       83.47       156.78      
S           32.25       81.22       156.88      
C           36.25       80.64       151.94      
C           35.13       79.96       152.56      
C           34.84       78.63       152.2       
C           35.67       78.05       151.28      
C           36.66       78.76       150.6       
C           37.0        80.07       150.91      
C           35.5        76.64       150.64      
C           36.71       76.57       149.73      
C           37.38       77.85       149.77      
C           36.48       82.0        152.65      
C           35.41       81.9        153.78      
C           34.65       80.72       153.64      
C           37.16       75.52       149.02      
C           38.4        75.65       148.31      
C           39.0        76.93       148.35      
C           38.6        77.98       149.06      
C           35.06       82.94       154.69      
C           34.05       82.64       155.67      
C           33.33       81.44       155.53      
C           33.54       80.47       154.49      
C           35.62       75.48       151.59      
C           34.33       76.5        149.69      
C           37.87       81.98       153.24      
C           36.31       83.28       151.79      
H           37.78       80.58       150.38      
H           34.03       78.02       152.58      
H           35.59       83.9        154.76      
H           32.98       79.51       154.49      
H           36.56       74.56       148.86      
H           39.19       78.82       149.2       
H           34.8        75.53       152.27      
H           35.75       74.5        151.13      
H           36.50623    75.6169     152.20964   
H           34.34       77.33       148.96      
H           34.49       75.65       149.11      
H           33.35671    76.41349    150.17304   
H           37.24       83.33       151.21      
H           36.17       84.18       152.4       
H           35.46119    83.22922    151.10805   
H           38.2        83.03       153.39      
H           38.62       81.62       152.53      
H           37.91286    81.42279    154.17583   
H           38.99       73.6        147.8       
H           34.08       84.42       157.06      
S           40.58       76.73       147.58      
C           39.19       74.66       147.67      
C           40.22       75.12       146.96      
C           31.02       83.35       161.55      
C           32.18       84.12       161.23      
C           30.47       82.65       160.54      
N           32.84       84.91       162.07      
N           33.89       84.8        159.82      
S           34.11       85.46       161.26      
H           30.5        81.98       158.55      
H           29.58       82.02       160.53      
C           31.09       82.47       159.33      
C           32.83       84.03       159.88      
C           32.29       83.12       158.9       
C           19.94       80.62       173.57      
C           19.86       80.29       172.24      
S           21.47       81.31       173.94      
C           24.35       81.0        168.29      
C           24.57       81.46       169.57      
C           25.71       82.16       169.87      
C           26.62       82.39       168.84      
C           26.31       81.95       167.56      
C           25.2        81.28       167.28      
C           28.04       83.03       168.83      
C           28.3        83.06       167.29      
C           27.28       82.41       166.59      
C           22.92       80.37       168.15      
C           22.44       80.59       169.59      
C           23.47       81.19       170.39      
C           29.4        83.63       166.59      
C           29.48       83.47       165.12      
C           28.43       82.68       164.56      
C           27.32       82.17       165.25      
C           21.29       80.18       170.14      
C           21.03       80.55       171.48      
C           21.94       81.24       172.24      
C           23.17       81.57       171.72      
C           27.96       84.44       169.46      
C           29.01       82.11       169.63      
C           21.98       81.03       167.12      
C           22.91       78.82       168.0       
H           24.94       81.02       166.3       
H           25.91       82.5        170.87      
H           20.58       79.68       169.47      
H           23.88       82.13       172.29      
H           30.28       84.06       167.09      
H           26.62       81.56       164.72      
H           28.77       84.74       170.11      
H           27.14       84.34       170.13      
H           27.60637    85.18335    168.74552   
H           28.91       82.59       170.63      
H           30.02       82.26       169.26      
H           28.68078    81.07114    169.60805   
H           21.89       78.43       167.66      
H           23.07       78.34       168.94      
H           23.6239     78.47705    167.25111   
H           22.53       80.72       166.18      
H           21.0        80.65       167.03      
H           21.81209    82.1004     167.23893   
H           31.36       84.38       164.52      
H           19.06       79.71       171.91      
S           28.85       82.38       162.9       
C           30.51       83.87       164.16      
C           30.33       83.26       162.88      
C           17.39       80.53       177.09      
C           17.14       79.54       176.07      
C           18.44       81.31       176.9       
N           16.16       78.6        176.05      
N           17.76       78.36       174.12      
S           16.63       77.54       174.85      
H           20.07       81.95       175.76      
H           18.64       82.11       177.58      
C           19.31       81.23       175.76      
C           18.02       79.44       174.92      
C           19.12       80.31       174.76      
C           10.84       86.11       191.06      
C           12.11       85.66       191.03      
S           9.89        85.74       189.66      
C           14.32       83.04       185.9       
C           12.92       83.36       185.88      
C           12.17       83.2        184.69      
C           12.8        82.58       183.57      
C           14.22       82.28       183.62      
C           14.98       82.47       184.77      
C           12.17       81.98       182.35      
C           13.4        81.72       181.49      
C           14.6        81.82       182.34      
C           14.88       83.41       187.29      
C           13.64       83.85       188.07      
C           12.51       83.95       187.14      
C           13.59       81.39       180.19      
C           14.92       81.28       179.75      
C           16.05       81.27       180.62      
C           15.88       81.48       181.95      
C           13.59       84.48       189.31      
C           12.38       84.97       189.77      
C           11.24       84.95       188.89      
C           11.33       84.48       187.57      
C           11.55       80.62       182.75      
C           11.15       82.95       181.6       
C           15.53       82.13       187.94      
C           15.88       84.63       187.3       
H           16.01       82.16       184.81      
H           11.23       83.7        184.5       
H           14.48       84.58       189.88      
H           10.57       84.64       186.83      
H           12.72       81.18       179.65      
H           16.72       81.41       182.66      
H           10.61       80.8        183.19      
H           12.21       80.19       183.52      
H           11.45545    79.93634    181.90634   
H           10.37       83.14       182.32      
H           10.61       82.41       180.84      
H           11.66241    83.84847    181.25606   
H           16.11       84.96       188.36      
H           15.36       85.44       186.76      
H           16.72313    84.39503    186.65037   
H           16.4        82.26       188.66      
H           15.9        81.59       187.11      
H           14.7372     81.5806     188.44767   
H           14.69       81.02       177.49      
H           12.93       85.75       191.82      
S           17.57       81.1        179.74      
C           15.29       80.98       178.38      
C           16.65       80.76       178.3       
C           8.55        88.77       193.85      
C           9.86        88.2        194.13      
C           8.28        88.49       192.54      
N           10.4        88.32       195.41      
N           11.68       86.78       193.97      
S           11.64       87.27       195.53      
H           8.77        87.79       190.59      
H           7.47        89.0        192.0       
C           9.08        87.69       191.63      
C           10.6        87.29       193.33      
C           10.22       87.0        192.0       
H           12.43       19.49       56.78       
H           7.83        89.16       194.57      
