612

C           72.09       65.06       97.59       
C           71.67       66.31       98.04       
S           71.21       64.73       96.11       
C           68.67       70.3        94.65       
C           68.74       69.01       94.12       
C           68.25       68.64       92.83       
C           67.86       69.68       92.02       
C           67.81       70.97       92.51       
C           68.29       71.34       93.76       
C           67.43       69.57       90.57       
C           67.34       71.04       90.22       
C           67.59       71.86       91.35       
C           69.27       70.36       96.07       
C           69.69       68.92       96.18       
C           69.4        68.16       95.06       
C           67.02       71.62       89.0        
C           67.02       73.02       88.84       
C           67.38       73.82       89.93       
C           67.71       73.27       91.17       
C           70.46       68.45       97.2        
C           70.89       67.13       97.11       
C           70.56       66.34       96.0        
C           69.77       66.86       95.0        
C           68.5        68.84       89.78       
C           66.03       68.98       90.3        
C           70.53       71.28       96.0        
C           68.29       70.82       97.22       
H           68.44       72.36       94.04       
H           68.44       67.63       92.52       
H           70.82       69.07       98.02       
H           69.54       66.27       94.07       
H           66.92       70.99       88.11       
H           68.05       73.9        91.97       
H           68.41       67.8        89.93       
H           68.26       68.93       88.73       
H           69.5205     69.19166    89.9317     
H           65.33       69.77       90.64       
H           65.87       68.79       89.23       
H           65.79092    68.04479    90.80628    
H           68.81       71.4        97.98       
H           67.89       69.96       97.73       
H           67.50748    71.50014    96.88359    
H           70.27       72.29       95.72       
H           71.02       71.27       96.94       
H           71.27198    71.04722    95.2362     
H           66.36       73.43       86.75       
H           72.08       66.67       98.98       
S           67.25       75.53       89.53       
C           66.55       73.84       87.72       
C           66.74       75.12       87.92       
C           74.82       62.21       99.45       
C           74.97       62.57       98.08       
C           73.71       62.81       100.08      
N           75.93       62.17       97.21       
N           74.33       63.62       96.17       
S           75.72       62.89       95.75       
H           72.16       63.99       100.12      
H           73.53       62.7        101.14      
C           72.9        63.67       99.48       
C           74.03       63.49       97.41       
C           73.02       64.08       98.14       
C           78.53       47.63       106.21      
C           78.64       47.77       104.88      
S           78.04       49.14       106.97      
C           77.46       53.22       102.17      
C           77.49       53.13       103.61      
C           77.37       54.24       104.46      
C           77.25       55.48       103.82      
C           77.16       55.55       102.4       
C           77.26       54.41       101.52      
C           76.85       56.81       104.47      
C           76.73       57.72       103.24      
C           76.78       56.95       102.02      
C           77.73       51.77       101.58      
C           77.81       50.93       102.84      
C           77.67       51.72       104.02      
C           76.48       59.09       103.12      
C           76.14       59.64       101.83      
C           76.29       58.84       100.67      
C           76.64       57.49       100.72      
C           78.17       49.61       103.03      
C           78.29       49.08       104.35      
C           77.98       49.94       105.44      
C           77.7        51.3        105.33      
C           75.44       56.96       105.19      
C           78.04       57.44       105.19      
C           76.61       51.32       100.73      
C           79.03       51.62       100.88      
H           76.84       54.46       100.55      
H           77.4        54.23       105.54      
H           78.46       49.01       102.18      
H           77.59       51.93       106.2       
H           76.24       59.69       104.03      
H           76.72       56.84       99.85       
H           75.4        56.23       105.99      
H           75.31       57.97       105.63      
H           74.62104    56.74795    104.50266   
H           78.98       57.32       104.6       
H           77.7        58.44       105.2       
H           78.25194    57.05145    106.1861    
H           78.88       51.88       99.83       
H           79.5        50.69       100.86      
H           79.82528    52.25483    101.27066   
H           76.58       51.99       99.92       
H           76.58       50.27       100.49      
H           75.61233    51.45013    101.14931   
H           75.33       61.69       102.08      
H           78.79       46.94       104.17      
S           75.93       59.71       99.2        
C           75.58       60.9        101.43      
C           75.49       61.11       100.13      
C           77.96       43.9        108.48      
C           78.56       45.06       109.09      
C           77.88       44.06       107.13      
N           78.79       45.16       110.37      
N           79.17       47.28       109.13      
S           79.18       46.67       110.67      
H           77.67       45.31       105.4       
H           77.22       43.35       106.67      
C           78.11       45.27       106.39      
C           78.81       46.28       108.33      
C           78.62       46.37       106.91      
C           70.37       31.16       115.93      
C           70.91       31.05       114.68      
S           70.44       32.84       116.46      
C           72.89       35.85       111.46      
C           72.4        36.09       112.75      
C           72.68       37.3        113.49      
C           73.34       38.26       112.73      
C           73.83       38.08       111.46      
C           73.72       36.83       110.8       
C           73.81       39.61       113.35      
C           74.65       40.12       112.17      
C           74.53       39.23       111.02      
C           72.79       34.38       111.15      
C           72.1        33.77       112.36      
C           71.96       34.81       113.29      
C           75.45       41.19       112.01      
C           76.09       41.51       110.78      
C           76.06       40.6        109.72      
C           75.33       39.41       109.87      
C           71.8        32.49       112.74      
C           71.28       32.29       114.09      
C           71.15       33.39       114.95      
C           71.45       34.69       114.59      
C           72.69       40.63       113.58      
C           74.84       39.59       114.51      
C           71.88       34.2        109.91      
C           74.17       33.72       111.02      
H           74.07       36.69       109.77      
H           72.58       37.52       114.6       
H           71.86       31.62       112.1       
H           71.45       35.52       115.27      
H           75.48       41.88       112.83      
H           75.25       38.74       109.03      
H           72.98       41.46       114.16      
H           71.83       40.11       114.05      
H           72.27959    40.96389    112.62702   
H           74.31       39.16       115.34      
H           75.21       40.57       114.78      
H           75.65802    38.87867    114.39619   
H           74.57       33.88       110.0       
H           74.05       32.66       111.18      
H           74.92575    34.07988    111.71817   
H           72.1        34.89       109.08      
H           72.08       33.26       109.4       
H           70.8624     34.30455    110.28637   
H           76.86       43.59       111.02      
H           71.13       30.01       114.2       
S           76.91       41.23       108.39      
C           76.83       42.72       110.43      
C           77.3        42.77       109.18      
C           69.48       28.18       119.0       
C           69.89       27.73       117.74      
C           69.02       29.44       118.96      
N           70.12       26.4        117.43      
N           70.6        28.04       115.56      
S           70.61       26.39       115.86      
H           69.14       31.41       118.37      
H           68.37       29.7        119.78      
C           69.33       30.38       118.0       
C           70.16       28.67       116.66      
C           69.96       30.1        116.85      
C           70.41       20.17       133.53      
C           70.22       21.54       133.41      
S           70.41       19.46       131.92      
C           69.94       24.46       128.11      
C           70.01       23.08       127.98      
C           69.95       22.38       126.8       
C           69.81       23.17       125.59      
C           69.72       24.53       125.72      
C           69.83       25.18       126.93      
C           69.65       22.68       124.16      
C           69.5        24.07       123.43      
C           69.54       25.14       124.37      
C           69.91       24.9        129.58      
C           69.99       23.59       130.28      
C           70.04       22.57       129.34      
C           69.35       24.29       122.1       
C           69.22       25.63       121.67      
C           69.24       26.68       122.58      
C           69.38       26.46       123.96      
C           69.98       23.37       131.66      
C           70.1        22.02       132.06      
C           70.26       21.0        131.09      
C           70.09       21.26       129.7       
C           70.95       21.9        123.62      
C           68.37       21.96       123.82      
C           71.13       25.75       130.01      
C           68.57       25.56       129.93      
H           69.67       26.22       127.03      
H           70.06       21.31       126.89      
H           69.84       24.22       132.34      
H           70.05       20.5        129.02      
H           69.19       23.46       121.41      
H           69.45       27.25       124.7       
H           71.09       20.97       124.15      
H           70.86       21.72       122.55      
H           71.88815    22.42995    123.78471   
H           67.46       22.6        124.04      
H           68.39       21.78       122.73      
H           68.28135    20.93311    124.17461   
H           68.29       25.52       130.95      
H           67.79       24.97       129.49      
H           68.47789    26.61572    129.67493   
H           71.04       26.74       129.54      
H           70.97       25.97       131.11      
H           72.07356    25.22016    129.87935   
H           68.88       25.37       119.46      
H           70.32       22.22       134.24      
S           69.31       28.17       121.7       
C           69.02       26.03       120.32      
C           69.15       27.37       120.16      
C           70.69       17.18       136.61      
C           69.72       18.23       136.83      
C           71.39       17.27       135.42      
N           68.9        18.39       137.86      
N           68.71       20.16       136.14      
S           68.16       19.83       137.66      
H           72.01       18.21       133.71      
H           72.04       16.47       135.18      
C           71.36       18.32       134.53      
C           69.63       19.27       135.86      
C           70.49       19.34       134.68      
C           73.74       3.29        144.68      
C           74.55       3.81        143.78      
S           72.67       4.61        145.23      
C           73.93       9.35        141.41      
C           73.24       9.17        142.64      
C           72.33       10.13       143.07      
C           72.13       11.23       142.22      
C           72.81       11.34       141.01      
C           73.72       10.42       140.59      
C           71.01       12.24       142.4       
C           71.26       13.05       141.09      
C           72.36       12.52       140.34      
C           74.94       8.26        141.05      
C           74.51       7.32        142.21      
C           73.63       7.92        143.12      
C           70.42       14.05       140.63      
C           70.84       14.71       139.43      
C           72.03       14.24       138.79      
C           72.84       13.22       139.19      
C           75.0        6.06        142.51      
C           74.37       5.24        143.49      
C           73.32       5.85        144.23      
C           73.05       7.25        144.16      
C           69.62       11.61       142.47      
C           71.27       13.08       143.71      
C           74.71       7.41        139.78      
C           76.46       8.66        141.34      
H           74.34       10.6        139.69      
H           71.91       10.1        144.04      
H           75.72       5.61        141.89      
H           72.29       7.75        144.77      
H           69.55       14.39       141.22      
H           73.74       12.91       138.66      
H           68.77       12.27       142.49      
H           69.53       11.13       143.44      
H           69.4569     10.92215    141.64032   
H           71.55       12.33       144.54      
H           70.37       13.57       144.09      
H           72.16198    13.70582    143.68123   
H           77.2        7.87        141.19      
H           76.47       8.9         142.38      
H           76.81355    9.4104      140.63289   
H           75.07       7.98        138.85      
H           75.34       6.5         139.71      
H           73.66662    7.12937     139.63609   
H           69.16       16.1        138.92      
H           75.33       3.15        143.33      
S           72.29       15.14       137.34      
C           70.11       15.6        138.6       
C           70.85       16.11       137.57      
C           72.92       -0.91       145.91      
C           74.15       -0.52       145.25      
C           72.06       0.18        145.99      
N           75.15       -1.36       144.95      
N           75.69       0.97        144.25      
S           76.41       -0.48       144.44      
H           71.56       2.26        145.82      
H           71.15       -0.05       146.47      
C           72.39       1.56        145.74      
C           74.46       0.84        144.84      
C           73.6        1.92        145.13      
C           66.82       -15.33      143.66      
C           65.96       -14.6       144.36      
S           68.47       -15.05      144.24      
C           68.11       -9.43       146.82      
C           69.05       -10.46      146.49      
C           70.42       -10.24      146.52      
C           70.84       -8.91       146.55      
C           69.92       -7.89       146.9       
C           68.58       -8.14       147.18      
C           72.25       -8.45       146.26      
C           71.99       -6.95       146.54      
C           70.65       -6.64       146.86      
C           66.76       -9.98       146.44      
C           66.94       -11.47      146.17      
C           68.35       -11.69      146.12      
C           72.91       -5.92       146.32      
C           72.47       -4.59       146.37      
C           71.2        -4.29       146.91      
C           70.32       -5.33       147.17      
C           66.0        -12.43      145.8       
C           66.58       -13.58      145.14      
C           67.96       -13.74      145.18      
C           68.83       -12.9       145.75      
C           73.2        -9.1        147.25      
C           72.69       -8.52       144.81      
C           65.83       -9.87       147.66      
C           66.01       -9.32       145.22      
H           67.88       -7.36       147.43      
H           71.15       -11.02      146.23      
H           64.97       -12.33      145.74      
H           69.93       -12.99      145.66      
H           73.88       -6.11       145.91      
H           69.25       -5.06       147.44      
H           74.21       -8.95       146.79      
H           73.25       -10.19      147.22      
H           73.10742    -8.60861    148.21854   
H           72.96       -7.55       144.46      
H           73.69       -9.03       144.8       
H           72.02265    -8.99966    144.09399   
H           65.47       -8.55       145.62      
H           65.44       -9.97       144.66      
H           66.73936    -8.90221    144.52604   
H           65.58       -8.88       147.94      
H           64.84       -10.24      147.22      
H           66.22032    -10.39042   148.5346    
H           74.2        -3.45       145.59      
H           64.92       -14.69      144.24      
S           70.91       -2.58       146.89      
C           73.23       -3.43       146.01      
C           72.53       -2.28       146.23      
C           66.43       -18.04      140.22      
C           65.35       -17.93      141.23      
C           67.42       -17.15      140.45      
N           64.24       -18.64      141.22      
N           64.32       -17.08      143.15      
S           63.32       -18.26      142.57      
H           68.37       -15.63      141.55      
H           68.3        -17.09      139.8       
C           67.48       -16.3       141.57      
C           65.47       -17.14      142.46      
C           66.65       -16.32      142.61      
C           71.32       -28.93      129.29      
C           71.87       -27.68      129.35      
S           69.84       -29.08      130.15      
C           69.09       -23.27      132.52      
C           68.31       -24.46      132.49      
C           67.09       -24.53      133.2       
C           66.65       -23.43      133.92      
C           67.46       -22.25      133.92      
C           68.67       -22.18      133.24      
C           65.36       -23.33      134.74      
C           65.68       -21.96      135.43      
C           66.86       -21.35      134.88      
C           70.21       -23.2       131.52      
C           70.27       -24.73      131.26      
C           69.07       -25.39      131.68      
C           65.08       -21.44      136.51      
C           65.78       -20.38      137.22      
C           66.92       -19.82      136.63      
C           67.45       -20.23      135.42      
C           71.24       -25.37      130.47      
C           71.05       -26.77      130.14      
C           69.87       -27.38      130.58      
C           68.86       -26.77      131.38      
C           64.14       -23.34      133.88      
C           65.26       -24.48      135.86      
C           69.9        -22.3       130.3       
C           71.53       -22.79      132.23      
H           69.36       -21.34      133.38      
H           66.64       -25.47      133.27      
H           72.1        -24.86      130.09      
H           68.03       -27.34      131.7       
H           64.25       -22.04      137.03      
H           68.46       -19.81      135.05      
H           64.09       -24.31      133.38      
H           63.25       -23.22      134.48      
H           64.14705    -22.62775   133.05492   
H           66.01       -24.36      136.63      
H           64.32       -24.29      136.38      
H           65.34313    -25.51906   135.54135   
H           71.47       -21.72      132.46      
H           72.36       -22.96      131.56      
H           71.67215    -23.41545   133.11131   
H           69.55       -21.29      130.61      
H           70.73       -22.19      129.56      
H           69.0349     -22.70711   129.77658   
H           64.78       -20.19      139.16      
H           72.76       -27.37      128.81      
S           67.57       -18.52      137.71      
C           65.53       -19.84      138.5       
C           66.44       -18.91      139.03      
C           72.6        -32.74      127.2       
C           73.32       -31.52      127.05      
C           71.72       -32.64      128.25      
N           74.38       -31.36      126.26      
N           73.66       -29.18      127.34      
S           74.81       -29.77      126.35      
H           70.53       -31.55      129.62      
H           71.21       -33.58      128.59      
C           71.33       -31.4       128.86      
C           72.91       -30.24      127.67      
C           71.77       -30.17      128.51      
C           71.01       -44.77      116.23      
C           70.06       -44.73      117.25      
S           72.09       -43.38      116.18      
C           70.69       -40.57      121.72      
C           71.63       -40.54      120.69      
C           72.75       -39.7       120.72      
C           72.87       -38.83      121.85      
C           71.91       -38.83      122.9       
C           70.79       -39.63      122.79      
C           73.98       -37.8       122.01      
C           73.62       -37.34      123.41      
C           72.42       -37.92      123.94      
C           69.61       -41.63      121.48      
C           70.11       -42.2       120.17      
C           71.22       -41.48      119.72      
C           74.19       -36.29      124.08      
C           73.52       -35.68      125.09      
C           72.3        -36.23      125.58      
C           71.73       -37.38      125.06      
C           69.64       -43.22      119.42      
C           70.33       -43.63      118.18      
C           71.4        -42.82      117.8       
C           71.8        -41.7       118.51      
C           75.43       -38.35      121.93      
C           73.73       -36.67      120.98      
C           69.65       -42.72      122.54      
C           68.18       -41.14      121.2       
H           70.2        -39.74      123.69      
H           73.57       -39.85      120.01      
H           68.81       -43.88      119.8       
H           72.6        -41.05      118.14      
H           75.13       -35.95      123.67      
H           70.82       -37.75      125.43      
H           76.25       -37.65      122.02      
H           75.62       -38.65      120.88      
H           75.68249    -39.16518   122.60811   
H           74.02       -37.06      120.01      
H           74.23       -35.73      121.2       
H           72.67179    -36.42422   120.89125   
H           67.52       -41.9       120.84      
H           68.26       -40.42      120.33      
H           67.73528    -40.51302   121.9728    
H           69.59       -42.4       123.57      
H           68.73       -43.34      122.32      
H           70.53796    -43.35017   122.48987   
H           74.51       -33.74      125.3       
H           69.24       -45.4       117.33      
S           71.63       -35.25      126.85      
C           73.78       -34.38      125.69      
C           72.84       -33.98      126.6       
C           71.69       -48.11      113.53      
C           71.85       -46.73      113.09      
C           71.37       -48.22      114.86      
N           72.13       -46.34      111.84      
N           71.79       -44.4       113.35      
S           72.17       -44.73      111.79      
H           70.84       -47.39      116.84      
H           71.16       -49.12      115.4       
C           71.13       -47.11      115.75      
C           71.58       -45.67      113.96      
C           71.2        -45.84      115.27      
C           73.7        -63.21      106.87      
C           73.53       -62.98      108.23      
S           74.38       -61.76      106.13      
C           73.58       -57.43      110.73      
C           74.07       -57.45      109.38      
C           74.36       -56.25      108.7       
C           74.11       -55.01      109.29      
C           73.51       -54.97      110.56      
C           73.37       -56.16      111.31      
C           74.11       -53.55      108.66      
C           73.5        -52.72      109.87      
C           73.28       -53.54      110.99      
C           73.36       -58.87      111.29      
C           73.83       -59.71      110.05      
C           74.21       -58.82      108.94      
C           73.28       -51.34      110.0       
C           72.75       -50.8       111.21      
C           72.61       -51.66      112.29      
C           72.8        -53.07      112.2       
C           73.72       -61.07      109.91      
C           73.8        -61.58      108.62      
C           74.28       -60.77      107.59      
C           74.43       -59.36      107.7       
C           75.55       -53.05      108.41      
C           73.15       -53.3       107.46      
C           74.23       -59.23      112.46      
C           71.92       -59.19      111.66      
H           73.01       -56.14      112.36      
H           74.63       -56.24      107.67      
H           73.5        -61.74      110.73      
H           74.52       -58.69      106.89      
H           73.52       -50.66      109.15      
H           72.61       -53.7       113.0       
H           75.64       -52.16      107.8       
H           76.04       -53.74      107.78      
H           76.1213     -52.93574   109.33123   
H           72.15       -53.48      107.74      
H           73.2        -52.22      107.21      
H           73.36434    -53.82869   106.53121   
H           71.68       -59.22      112.68      
H           71.62       -60.19      111.27      
H           71.17433    -58.50764   111.25199   
H           73.75       -58.75      113.32      
H           74.23       -60.32      112.49      
H           75.23939    -58.83174   112.357     
H           72.58       -48.55      110.72      
H           73.13       -63.74      108.83      
S           72.06       -50.79      113.71      
C           72.46       -49.4       111.46      
C           72.04       -49.26      112.8       
C           72.81       -66.61      104.15      
C           72.56       -66.72      105.54      
C           73.34       -65.42      103.76      
N           72.07       -67.78      106.18      
N           72.62       -65.87      107.71      
S           71.92       -67.39      107.78      
H           74.07       -63.57      104.14      
H           73.53       -65.24      102.76      
C           73.65       -64.33      104.64      
C           72.97       -65.64      106.47      
C           73.49       -64.37      105.97      
C           69.89       -78.13      92.44       
C           69.4        -76.83      92.4        
S           70.62       -78.41      94.02       
C           70.38       -72.67      96.59       
C           70.54       -73.99      97.05       
C           71.0        -74.24      98.38       
C           71.23       -73.19      99.24       
C           71.04       -71.89      98.8        
C           70.65       -71.6       97.48       
C           71.92       -73.23      100.56      
C           71.72       -71.78      100.98      
C           71.37       -71.01      99.85       
C           69.8        -72.55      95.18       
C           69.69       -74.08      94.92       
C           70.38       -74.88      95.96       
C           71.92       -71.2       102.18      
C           72.06       -69.82      102.31      
C           71.77       -69.06      101.12      
C           71.37       -69.57      99.93       
C           69.39       -74.73      93.72       
C           69.69       -76.07      93.59       
C           70.24       -76.82      94.56       
C           70.66       -76.24      95.76       
C           71.38       -74.17      101.66      
C           73.49       -73.34      100.36      
C           68.4        -71.8       94.99       
C           70.8        -71.99      94.1        
H           70.64       -70.6       97.1        
H           71.0        -75.33      98.69       
H           68.86       -74.17      92.88       
H           71.32       -76.82      96.36       
H           72.16       -71.82      103.06      
H           71.14       -68.89      99.12       
H           71.58       -75.22      101.23      
H           71.84       -74.23      102.62      
H           70.30735    -74.02602   101.78958   
H           73.75       -72.91      99.4        
H           73.97       -72.66      101.08      
H           73.89178    -74.35162   100.3026    
H           70.39       -71.07      93.72       
H           70.89       -72.7       93.32       
H           71.80634    -71.74935   94.44274    
H           68.5        -70.67      95.06       
H           68.01       -71.95      93.93       
H           67.6689     -72.07852   95.74896    
H           72.96       -69.48      104.23      
H           68.94       -76.41      91.46       
S           71.9        -67.34      101.54      
C           72.5        -69.02      103.38      
C           72.57       -67.66      103.16      
C           70.45       -81.24      89.26       
C           69.36       -80.31      89.22       
C           71.3        -81.01      90.31       
N           68.43       -80.36      88.23       
N           68.05       -78.54      90.04       
S           67.4        -79.1       88.59       
H           71.95       -79.87      92.0        
H           72.17       -81.59      90.38       
C           71.07       -80.03      91.36       
C           69.12       -79.36      90.29       
C           69.94       -79.21      91.44       
H           67.0        75.79       87.13       
H           70.38       -82.18      88.62       
