612

C           103.41      7.41        92.46       
C           102.42      6.51        92.18       
S           104.95      6.67        91.98       
C           103.03      1.32        89.17       
C           104.22      1.89        89.61       
C           105.45      1.28        89.33       
C           105.43      0.13        88.55       
C           104.23      -0.49       88.14       
C           103.0       0.06        88.5        
C           106.65      -0.8        88.4        
C           106.03      -1.83       87.39       
C           104.61      -1.68       87.4        
C           101.9       1.84        90.09       
C           102.61      3.15        90.57       
C           103.97      3.19        90.18       
C           106.51      -3.03       86.86       
C           105.66      -3.95       86.22       
C           104.29      -3.66       86.12       
C           103.69      -2.61       86.77       
C           101.98      4.24        91.23       
C           102.77      5.32        91.5        
C           104.15      5.24        91.33       
C           104.75      4.17        90.63       
C           107.85      -0.03       87.78       
C           107.05      -1.63       89.64       
C           100.51      2.22        89.4        
C           101.72      0.99        91.39       
H           102.06      -0.37       88.14       
H           106.36      1.71        89.6        
H           100.92      4.24        91.49       
H           105.88      4.14        90.45       
H           107.6       -3.25       86.93       
H           102.64      -2.44       86.78       
H           108.19      0.66        88.59       
H           108.7       -0.69       87.8        
H           107.68231   0.35429     86.77387    
H           106.09      -2.12       89.83       
H           107.85      -2.38       89.45       
H           107.33641   -1.07922    90.53594    
H           101.0       1.52        92.04       
H           102.64      0.99        92.04       
H           101.31706   -0.0071     91.21243    
H           99.92       1.31        89.22       
H           99.94       2.82        90.02       
H           100.6407    2.60524     88.38876    
H           107.01      -5.6        85.53       
H           101.41      6.75        92.45       
S           103.43      -4.85       85.11       
C           106.01      -5.16       85.48       
C           104.94      -5.66       84.76       
C           103.74      11.54       94.14       
C           102.51      11.07       93.49       
C           104.66      10.55       94.22       
N           101.36      11.81       93.35       
N           101.18      9.48        92.53       
S           100.25      10.87       92.55       
H           105.41      8.56        93.69       
H           105.62      10.65       94.77       
C           104.52      9.23        93.6        
C           102.35      9.74        93.04       
C           103.39      8.74        93.05       
C           107.64      22.85       105.14      
C           108.56      22.16       104.47      
S           106.11      22.72       104.35      
C           107.41      18.99       99.5        
C           106.32      19.58       100.11      
C           105.04      19.39       99.62       
C           104.84      18.6        98.51       
C           105.92      17.89       98.02       
C           107.2       18.06       98.48       
C           103.53      18.36       97.74       
C           103.98      17.18       96.83       
C           105.42      16.87       97.05       
C           108.75      19.44       100.08      
C           108.18      20.34       101.22      
C           106.8       20.42       101.13      
C           103.23      16.31       96.04       
C           103.74      15.12       95.56       
C           105.13      14.88       95.74       
C           105.96      15.76       96.51       
C           108.89      20.81       102.26      
C           108.14      21.61       103.22      
C           106.79      21.84       103.01      
C           106.09      21.22       101.96      
C           102.44      17.87       98.74       
C           103.16      19.57       96.84       
C           109.52      18.23       100.71      
C           109.49      20.29       98.96       
H           107.98      17.43       98.04       
H           104.14      19.72       100.12      
H           109.92      20.49       102.64      
H           105.03      21.35       101.78      
H           102.22      16.47       95.8        
H           107.07      15.51       96.71       
H           101.99      18.73       99.26       
H           101.61      17.37       98.17       
H           102.80332   17.13624    99.45951    
H           104.09      19.76       96.26       
H           102.3       19.34       96.24       
H           102.91514   20.49348    97.36471    
H           108.9       21.18       98.93       
H           109.38      19.92       98.01       
H           110.52442   20.54682    99.18829    
H           109.87      17.65       99.9        
H           110.42      18.6        101.31      
H           108.8573    17.59462    101.29755   
H           102.11      13.8        94.76       
H           109.6       22.1        104.83      
S           105.61      13.37       94.97       
C           103.17      13.89       94.87       
C           104.0       12.88       94.6        
C           107.84      24.07       109.37      
C           108.97      23.54       108.7       
C           106.67      24.04       108.6       
N           110.17      23.4        109.26      
N           110.11      22.73       106.92      
S           111.22      22.85       108.12      
H           105.71      24.02       106.6       
H           105.83      24.38       109.04      
C           106.64      23.83       107.19      
C           108.95      23.33       107.27      
C           107.7       23.38       106.5       
C           107.31      24.2        125.96      
C           107.28      23.08       125.22      
S           107.3       25.66       125.02      
C           107.26      23.24       119.1       
C           107.22      24.48       119.75      
C           107.33      25.69       118.95      
C           107.47      25.58       117.56      
C           107.34      24.27       116.94      
C           107.27      23.11       117.73      
C           107.5       26.68       116.47      
C           107.45      25.8        115.26      
C           107.39      24.39       115.5       
C           107.12      22.1        120.11      
C           107.05      22.94       121.45      
C           107.14      24.29       121.22      
C           107.62      26.2        114.01      
C           107.62      25.23       113.02      
C           107.52      23.83       113.25      
C           107.46      23.37       114.54      
C           107.14      22.46       122.7       
C           107.18      23.36       123.81      
C           107.19      24.73       123.58      
C           107.2       25.29       122.28      
C           106.17      27.52       116.43      
C           108.79      27.55       116.45      
C           105.75      21.4        119.94      
C           108.28      21.1        120.14      
H           107.39      22.12       117.22      
H           107.31      26.63       119.47      
H           107.14      21.36       122.83      
H           107.38      26.36       122.1       
H           107.68      27.24       113.7       
H           107.41      22.32       114.77      
H           106.07      28.23       117.23      
H           106.17      28.19       115.51      
H           105.27401   26.90082    116.47371   
H           109.65      26.93       116.09      
H           108.59      28.28       115.68      
H           109.07137   27.93237    117.43118   
H           108.02      20.46       120.9       
H           109.22      21.48       120.39      
H           108.41895   20.50031    119.24046   
H           105.8       20.91       118.94      
H           105.6       20.78       120.8       
H           104.91442   22.08688    119.80546   
H           107.85      26.4        111.12      
H           107.25      22.08       125.67      
S           107.67      22.87       111.76      
C           107.8       25.43       111.58      
C           107.83      24.32       110.82      
C           106.84      25.07       130.24      
C           106.73      23.73       129.79      
C           107.31      25.95       129.32      
N           106.33      22.69       130.52      
N           106.74      22.04       128.16      
S           106.26      21.32       129.55      
H           107.74      26.38       127.3       
H           107.63      26.97       129.67      
C           107.45      25.6        127.94      
C           106.94      23.35       128.38      
C           107.29      24.34       127.44      
C           96.86       33.08       138.89      
C           98.09       33.71       138.79      
S           97.0        31.33       138.85      
C           103.07      30.43       137.38      
C           101.96      29.65       137.69      
C           101.93      28.23       137.63      
C           102.94      27.61       137.01      
C           104.02      28.38       136.51      
C           104.13      29.76       136.81      
C           102.91      26.16       136.43      
C           104.29      26.19       135.73      
C           104.81      27.48       135.6       
C           102.87      31.93       137.51      
C           101.36      31.93       137.98      
C           100.85      30.6        137.99      
C           104.84      25.19       134.86      
C           105.58      25.59       133.77      
C           106.09      26.95       133.75      
C           105.83      27.9        134.7       
C           100.47      32.97       138.2       
C           99.12       32.8        138.39      
C           98.69       31.44       138.47      
C           99.52       30.31       138.28      
C           102.85      25.04       137.51      
C           101.97      25.94       135.14      
C           103.74      32.65       138.56      
C           103.0       32.64       136.11      
H           104.92      30.36       136.37      
H           100.96      27.73       137.87      
H           100.97      33.93       138.13      
H           99.28       29.32       138.6       
H           104.61      24.13       134.99      
H           106.3       28.95       134.63      
H           101.87      24.92       138.03      
H           103.08      24.13       137.03      
H           103.64499   25.07581    138.25486   
H           102.36      26.65       134.4       
H           102.02      24.97       134.71      
H           100.90752   26.14804    135.26631   
H           102.74      33.71       136.24      
H           102.51      31.97       135.41      
H           104.01714   32.75056    135.7341    
H           104.81      32.52       138.29      
H           103.5       33.75       138.44      
H           103.62107   32.25122    139.56744   
H           105.83      23.7        132.62      
H           98.19       34.8        138.83      
S           106.88      27.11       132.25      
C           106.02      24.8        132.65      
C           106.55      25.47       131.63      
C           92.85       34.88       139.79      
C           94.12       35.46       140.27      
C           93.1        33.76       139.08      
N           94.09       36.53       141.05      
N           96.39       35.55       140.46      
S           95.68       36.74       141.34      
H           94.33       32.26       138.19      
H           92.26       33.34       138.59      
C           94.39       33.14       138.8       
C           95.37       34.86       139.97      
C           95.56       33.66       139.2       
C           77.4        38.99       144.29      
C           77.74       37.73       143.98      
S           78.8        40.05       144.2       
C           83.45       36.19       142.47      
C           83.25       37.56       142.66      
C           84.23       38.54       142.47      
C           85.39       38.11       141.84      
C           85.61       36.7        141.61      
C           84.66       35.76       141.96      
C           86.68       38.91       141.35      
C           87.67       37.83       140.99      
C           87.01       36.56       141.06      
C           82.19       35.35       142.73      
C           81.2        36.47       143.07      
C           81.87       37.72       143.08      
C           88.94       37.88       140.52      
C           89.64       36.69       140.23      
C           89.02       35.49       140.31      
C           87.68       35.37       140.69      
C           79.82       36.44       143.31      
C           79.12       37.59       143.58      
C           79.83       38.8        143.67      
C           81.22       38.89       143.39      
C           86.37       39.88       140.22      
C           87.25       39.71       142.52      
C           81.84       34.57       141.48      
C           82.23       34.4        144.01      
H           84.92       34.68       141.93      
H           84.0        39.53       142.5       
H           79.31       35.53       143.45      
H           81.66       39.88       143.24      
H           89.46       38.86       140.57      
H           87.17       34.43       140.9       
H           85.51       40.52       140.46      
H           87.18       40.59       139.98      
H           86.12798    39.32997    139.31061   
H           86.6        40.54       142.78      
H           88.09       40.24       142.21      
H           87.50923    39.14113    143.41291   
H           81.65       33.49       143.81      
H           81.82       34.87       144.87      
H           83.21828    34.03477    144.2893    
H           82.75       33.99       141.24      
H           81.1        33.76       141.78      
H           81.49531    35.19044    140.65275   
H           91.78       37.34       139.92      
H           77.02       36.91       144.01      
S           90.16       34.2        139.91      
C           91.05       36.58       139.97      
C           91.49       35.35       139.95      
C           73.52       40.85       144.97      
C           73.56       39.5        144.67      
C           74.73       41.4        145.15      
N           72.53       38.72       144.43      
N           74.64       37.47       144.2       
S           73.04       37.17       144.2       
H           76.83       41.39       145.22      
H           74.73       42.41       145.49      
C           76.0        40.74       145.0       
C           74.82       38.8        144.46      
C           76.09       39.52       144.51      
C           62.12       47.93       137.26      
C           63.33       48.57       137.36      
S           61.7        47.07       138.73      
C           67.17       46.99       141.87      
C           65.89       46.37       141.87      
C           65.58       45.41       142.94      
C           66.67       44.96       143.61      
C           67.94       45.61       143.66      
C           68.2        46.72       142.8       
C           66.81       43.56       144.18      
C           68.21       43.65       144.82      
C           68.88       44.77       144.26      
C           67.34       47.76       140.58      
C           65.96       47.77       139.99      
C           65.09       47.0        140.83      
C           68.82       42.57       145.43      
C           70.23       42.61       145.28      
C           70.94       43.71       144.67      
C           70.3        44.88       144.29      
C           65.53       48.35       138.79      
C           64.14       48.13       138.47      
C           63.36       47.26       139.29      
C           63.83       46.64       140.43      
C           65.75       43.31       145.32      
C           66.92       42.38       143.18      
C           68.03       49.12       140.77      
C           68.13       46.95       139.52      
H           69.12       47.19       142.75      
H           64.65       44.79       143.03      
H           66.15       49.0        138.14      
H           63.26       46.01       141.12      
H           68.29       41.69       145.69      
H           70.79       45.7        143.81      
H           64.79       43.28       144.77      
H           65.9        42.34       145.78      
H           65.75714    44.08783    146.08356   
H           67.8        42.8        142.63      
H           67.17       41.36       143.65      
H           66.04402    42.2803     142.53904   
H           68.05       47.59       138.58      
H           67.61       46.03       139.29      
H           69.15978    46.71629    139.79023   
H           69.08       49.0        141.15      
H           68.05       49.57       139.82      
H           67.54186    49.80914    141.45914   
H           70.89       40.57       145.96      
H           63.72       49.27       136.61      
S           72.68       43.41       144.42      
C           71.16       41.57       145.57      
C           72.43       41.79       145.08      
C           59.36       47.09       133.88      
C           60.75       47.42       133.61      
C           59.04       47.16       135.18      
N           61.3        47.62       132.45      
N           62.97       47.85       134.25      
S           62.95       47.89       132.63      
H           59.55       47.71       137.18      
H           58.03       47.15       135.47      
C           59.96       47.5        136.16      
C           61.72       47.7        134.68      
C           61.32       47.65       136.05      
C           49.84       43.69       120.81      
C           50.86       44.58       120.84      
S           49.35       43.29       122.47      
C           53.67       46.25       125.94      
C           52.47       45.54       126.27      
C           52.22       45.0        127.54      
C           53.2        45.29       128.52      
C           54.33       46.01       128.22      
C           54.56       46.6        126.94      
C           53.34       44.67       129.88      
C           54.43       45.54       130.47      
C           55.14       46.13       129.4       
C           53.89       46.56       124.47      
C           52.56       45.99       123.9       
C           51.79       45.34       124.95      
C           54.99       45.49       131.72      
C           56.34       46.07       131.86      
C           57.08       46.5        130.78      
C           56.45       46.66       129.6       
C           52.32       45.86       122.58      
C           51.26       45.02       122.2       
C           50.52       44.4        123.17      
C           50.75       44.5        124.57      
C           52.1        44.76       130.79      
C           53.98       43.27       129.77      
C           53.95       48.09       124.24      
C           55.13       45.88       123.86      
H           55.55       47.01       126.71      
H           51.44       44.29       127.74      
H           52.76       46.49       121.82      
H           50.25       43.88       125.28      
H           54.48       45.18       132.64      
H           57.05       47.0        128.71      
H           51.44       43.93       130.58      
H           52.4        44.61       131.82      
H           51.61839    45.73062    130.67145   
H           54.88       43.32       129.25      
H           54.34       42.93       130.76      
H           53.42187    42.52351    129.2049    
H           55.95       46.47       124.11      
H           55.12       45.82       122.78      
H           55.31063    44.89013    124.27907   
H           54.85       48.46       124.67      
H           53.94       48.28       123.13      
H           53.09238    48.57286    124.70845   
H           56.71       45.99       134.11      
H           51.31       44.98       119.93      
S           58.67       47.06       131.17      
C           57.06       46.29       133.08      
C           58.38       46.62       132.88      
C           48.07       40.69       118.09      
C           49.37       41.2        117.74      
C           47.49       41.16       119.19      
N           50.23       40.89       116.69      
N           51.25       42.53       118.21      
S           51.51       41.89       116.78      
H           47.6        42.47       120.82      
H           46.46       40.92       119.41      
C           48.11       42.18       120.0       
C           50.0        42.24       118.58      
C           49.37       42.74       119.8       
C           38.46       31.53       108.16      
C           39.65       32.02       107.71      
S           38.34       31.74       109.89      
C           43.38       35.24       111.2       
C           42.18       34.83       111.81      
C           41.86       35.14       113.12      
C           42.79       35.83       113.85      
C           43.97       36.31       113.24      
C           44.24       36.15       111.88      
C           42.69       36.16       115.33      
C           44.01       36.79       115.59      
C           44.71       36.96       114.34      
C           43.49       34.66       109.79      
C           42.07       34.05       109.66      
C           41.44       33.95       110.91      
C           44.53       37.39       116.69      
C           45.7        38.1        116.62      
C           46.35       38.25       115.41      
C           45.9        37.68       114.21      
C           41.59       33.4        108.55      
C           40.36       32.77       108.68      
C           39.79       32.68       109.95      
C           40.26       33.25       111.12      
C           41.52       37.1        115.65      
C           42.67       34.88       116.28      
C           43.86       35.85       108.82      
C           44.49       33.45       109.81      
H           45.2        36.56       111.42      
H           40.96       34.72       113.55      
H           42.11       33.4        107.61      
H           39.67       33.2        112.01      
H           44.18       37.16       117.67      
H           46.39       37.71       113.29      
H           41.34       37.14       116.75      
H           40.62       36.63       115.23      
H           41.70711    38.11872    115.31043   
H           41.69       34.43       116.2       
H           42.83       35.19       117.3       
H           43.37915    34.09043    116.03143   
H           44.51       33.16       108.76      
H           44.07       32.55       110.37      
H           45.46015    33.6609     110.25992   
H           44.81       36.39       109.03      
H           43.97       35.36       107.89      
H           43.07422    36.6007     108.73581   
H           45.91       38.95       118.67      
H           39.99       31.85       106.7       
S           47.79       39.29       115.65      
C           46.35       38.89       117.68      
C           47.42       39.65       117.33      
C           35.59       28.78       106.17      
C           36.47       29.57       105.44      
C           35.69       28.86       107.46      
N           36.57       29.54       104.13      
N           38.08       31.18       105.1       
S           37.78       30.48       103.62      
H           36.58       29.77       109.27      
H           34.93       28.33       108.06      
C           36.58       29.82       108.15      
C           37.45       30.52       106.01      
C           37.48       30.67       107.47      
C           27.37       15.39       100.33      
C           27.6        15.58       101.67      
S           28.38       16.51       99.38       
C           30.77       20.38       103.65      
C           30.61       20.4        102.28      
C           30.95       21.44       101.43      
C           31.58       22.56       102.03      
C           31.81       22.5        103.42      
C           31.45       21.44       104.18      
C           31.91       23.96       101.47      
C           32.76       24.45       102.65      
C           32.56       23.73       103.85      
C           29.92       19.31       104.38      
C           29.58       18.48       103.16      
C           29.94       19.1        101.95      
C           33.38       25.67       102.69      
C           33.79       26.18       103.95      
C           33.59       25.39       105.16      
C           32.97       24.14       105.13      
C           28.76       17.38       103.21      
C           28.39       16.74       101.97      
C           28.87       17.33       100.8       
C           29.59       18.57       100.71      
C           32.81       23.79       100.17      
C           30.74       24.89       101.21      
C           30.76       18.48       105.36      
C           28.52       19.73       104.98      
H           31.58       21.45       105.29      
H           30.64       21.48       100.33      
H           28.45       16.93       104.2       
H           29.81       19.08       99.74       
H           33.56       26.3        101.85      
H           32.61       23.61       106.0       
H           32.2        23.73       99.23       
H           33.37       24.68       100.1       
H           33.50573    22.95103    100.15636   
H           30.31       25.19       102.13      
H           31.12       25.77       100.78      
H           29.90442    24.55434    100.59581   
H           28.09       18.88       105.54      
H           27.84       19.87       104.19      
H           28.51286    20.6155     105.61556   
H           30.1        17.88       106.02      
H           31.35       19.23       105.97      
H           31.38025    17.74435    104.84793   
H           34.55       28.2        103.4       
H           27.13       14.92       102.44      
S           34.45       26.23       106.49      
C           34.36       27.5        104.2       
C           34.81       27.69       105.52      
C           25.21       12.69       97.58       
C           25.36       12.37       98.92       
C           25.78       13.81       97.2        
N           24.85       11.29       99.55       
N           26.12       12.77       101.12      
S           25.29       11.37       101.1       
H           26.96       15.56       97.64       
H           25.55       14.29       96.27       
C           26.54       14.66       98.13       
C           26.02       13.25       99.9        
C           26.64       14.43       99.48       
C           15.01       7.52        85.75       
C           14.57       7.78        87.02       
S           16.72       7.7         85.59       
C           18.37       9.51        91.45       
C           18.88       9.48        90.14       
C           20.15       9.91        89.84       
C           20.99       10.19       90.92       
C           20.45       10.2        92.23       
C           19.15       9.86        92.54       
C           22.38       10.82       90.85       
C           22.71       10.92       92.29       
C           21.6        10.52       93.11       
C           16.87       9.11        91.49       
C           16.73       8.75        90.0        
C           17.91       8.95        89.23       
C           23.84       11.34       92.97       
C           23.89       11.44       94.36       
C           22.75       11.04       95.12       
C           21.61       10.6        94.47       
C           15.55       8.38        89.36       
C           15.63       8.06        87.97       
C           16.86       8.15        87.3        
C           18.02       8.56        87.92       
C           23.43       9.8         90.22       
C           22.43       12.15       90.13       
C           16.53       7.96        92.44       
C           15.88       10.36       91.65       
H           18.76       9.83        93.5        
H           20.48       10.05       88.83       
H           14.63       8.14        89.9        
H           18.95       8.45        87.42       
H           24.74       11.71       92.45       
H           20.72       10.32       95.04       
H           24.42       10.19       90.18       
H           23.23       9.76        89.12       
H           23.43       8.79472     90.64133    
H           22.05       11.99       89.15       
H           23.43       12.64       90.13       
H           21.87478    12.94813    90.62276    
H           14.86       9.95        91.56       
H           16.08       11.11       90.9        
H           15.75674    10.83853    92.62156    
H           17.04       8.12        93.44       
H           15.5        7.94        92.76       
H           16.80462    6.97716     92.05698    
H           25.87       12.22       94.98       
H           13.49       7.71        87.27       
S           22.71       11.58       96.78       
C           24.86       11.94       95.29       
C           24.44       11.91       96.6        
C           12.87       6.71        81.98       
C           12.13       7.08        83.11       
C           14.17       6.55        82.23       
N           10.81       7.14        83.15       
N           11.83       7.65        85.26       
S           10.34       7.62        84.62       
H           15.88       6.8         83.32       
H           14.73       6.16        81.31       
C           14.8        6.89        83.41       
C           12.73       7.32        84.4        
C           14.16       7.26        84.53       
H           105.0       -6.64       84.28       
H           12.46       6.26        81.04       
