612

C           92.38       61.98       15.07       
C           93.57       62.36       14.46       
S           92.32       60.23       15.04       
C           97.81       58.79       12.14       
C           96.65       58.17       12.53       
C           96.45       56.79       12.5        
C           97.39       56.02       11.8        
C           98.56       56.65       11.28       
C           98.85       58.05       11.52       
C           97.33       54.53       11.59       
C           98.51       54.39       10.57       
C           99.26       55.63       10.52       
C           97.75       60.36       12.32       
C           96.33       60.45       12.91       
C           95.7        59.18       13.07       
C           99.11       53.25       9.99        
C           100.36      53.33       9.31        
C           101.01      54.6        9.28        
C           100.42      55.75       9.88        
C           95.6        61.53       13.19       
C           94.37       61.39       13.89       
C           93.76       60.09       14.08       
C           94.42       58.95       13.63       
C           97.74       53.71       12.88       
C           96.03       53.97       11.02       
C           98.92       60.76       13.27       
C           97.84       61.16       10.99       
H           99.78       58.55       11.17       
H           95.61       56.33       13.01       
H           96.04       62.57       13.05       
H           93.98       57.97       13.86       
H           98.66       52.31       10.13       
H           100.92      56.76       9.77        
H           98.63       54.19       13.39       
H           98.0        52.71       12.61       
H           96.97087    53.78056    13.64913    
H           95.2        54.29       11.68       
H           95.98       52.88       10.86       
H           95.71036    54.39387    10.06802    
H           98.89       61.09       10.58       
H           97.71       62.2        11.26       
H           97.09037    60.88677    10.24737    
H           99.84       60.22       12.85       
H           99.05       61.85       13.38       
H           98.73523    60.41178    14.28622    
H           100.89      51.22       8.46        
H           93.82       63.4        14.34       
S           102.53      54.48       8.45        
C           101.16      52.3        8.66        
C           102.43      52.76       8.28        
C           90.02       64.71       17.6        
C           89.39       63.48       17.13       
C           91.27       64.89       17.16       
N           88.12       62.97       17.4        
N           89.41       61.5        15.97       
S           87.89       61.54       16.64       
H           92.98       64.25       15.97       
H           91.81       65.77       17.21       
C           91.95       63.94       16.28       
C           90.09       62.54       16.23       
C           91.45       62.78       15.81       
C           84.35       79.6        22.96       
C           85.66       79.28       22.78       
S           83.36       78.19       22.55       
C           87.6        73.69       21.05       
C           86.24       73.75       21.37       
C           85.34       72.71       21.07       
C           85.9        71.58       20.61       
C           87.33       71.47       20.33       
C           88.14       72.57       20.45       
C           85.24       70.24       20.29       
C           86.42       69.29       20.02       
C           87.61       70.05       19.97       
C           88.25       75.07       21.02       
C           87.22       75.87       21.79       
C           85.98       75.16       21.72       
C           86.46       67.97       19.63       
C           87.72       67.31       19.25       
C           88.87       68.13       19.21       
C           88.82       69.45       19.61       
C           87.22       77.24       22.11       
C           85.97       77.88       22.43       
C           84.77       77.12       22.27       
C           84.79       75.78       21.99       
C           84.33       69.71       21.46       
C           84.4        70.33       18.97       
C           89.62       75.09       21.73       
C           88.43       75.77       19.64       
H           89.26       72.6        20.12       
H           84.29       72.82       21.26       
H           88.12       77.78       22.15       
H           83.92       75.14       21.87       
H           85.54       67.39       19.7        
H           89.72       70.05       19.59       
H           83.47       69.15       21.05       
H           83.82       70.58       21.92       
H           84.87319    69.08921    22.1725     
H           83.69       71.08       19.12       
H           83.97       69.37       18.65       
H           84.9165     70.77375    18.11887    
H           89.07       76.64       19.76       
H           87.42       76.09       19.29       
H           88.89047    75.18394    18.84464    
H           90.24       74.52       21.2        
H           89.88       76.14       21.75       
H           89.49037    74.71552    22.74541    
H           87.3        65.16       18.48       
H           86.47       80.02       22.84       
S           90.27       67.14       18.84       
C           87.99       65.99       18.67       
C           89.34       65.78       18.38       
C           82.92       83.72       23.63       
C           81.97       82.61       23.73       
C           84.15       83.33       23.3        
N           80.62       82.69       23.99       
N           81.37       80.38       23.69       
S           80.02       81.18       24.0        
H           85.61       81.87       22.9        
H           84.9        84.04       23.08       
C           84.54       82.02       23.1        
C           82.36       81.2        23.46       
C           83.75       80.93       23.2        
C           84.3        99.62       19.58       
C           85.31       98.69       19.83       
S           82.73       98.81       19.69       
C           84.44       92.98       21.5        
C           83.19       93.66       21.21       
C           82.01       92.99       21.41       
C           81.97       91.69       21.87       
C           83.2        91.06       22.21       
C           84.44       91.68       21.96       
C           80.86       90.7        21.95       
C           81.6        89.49       22.56       
C           82.95       89.71       22.66       
C           85.6        93.88       21.36       
C           84.97       95.13       20.85       
C           83.56       95.09       20.9        
C           80.95       88.31       22.9        
C           81.8        87.26       23.3        
C           83.22       87.5        23.42       
C           83.81       88.72       23.15       
C           85.63       96.3        20.56       
C           84.81       97.42       20.21       
C           83.41       97.35       20.27       
C           82.75       96.16       20.51       
C           79.75       91.15       23.02       
C           80.27       90.35       20.62       
C           86.48       94.03       22.62       
C           86.53       93.62       20.19       
H           85.28       91.03       22.1        
H           81.08       93.62       21.38       
H           86.73       96.45       20.64       
H           81.68       96.09       20.52       
H           79.91       88.16       22.93       
H           84.9        88.85       23.15       
H           79.38       92.06       22.66       
H           78.9        90.49       22.93       
H           80.12328    91.26711    24.03737    
H           81.02       89.74       20.07       
H           79.44       89.67       20.74       
H           79.99094    91.18021    19.97118    
H           87.35       94.27       20.3        
H           86.1        94.01       19.3        
H           87.0172     92.6456     20.15418    
H           86.82       93.02       22.76       
H           87.47       94.51       22.37       
H           85.89325    94.42355    23.45003    
H           80.59       85.47       23.2        
H           86.39       98.84       19.66       
S           84.13       86.09       23.79       
C           81.51       85.88       23.48       
C           82.65       85.18       23.67       
C           84.5        103.47      17.46       
C           85.52       102.52      17.35       
C           83.52       103.05      18.27       
N           86.59       102.62      16.59       
N           86.64       100.6       17.91       
S           87.52       101.28      16.71       
H           82.6        101.65      19.73       
H           82.72       103.79      18.36       
C           83.42       101.82      19.02       
C           85.54       101.3       18.08       
C           84.36       100.89      18.88       
C           86.44       118.24      11.08       
C           87.09       117.24      10.46       
S           84.88       117.74      11.72       
C           85.64       111.43      11.57       
C           84.67       112.35      12.03       
C           83.6        112.13      12.86       
C           83.66       110.94      13.62       
C           84.54       109.97      13.17       
C           85.48       110.16      12.14       
C           82.78       110.52      14.82       
C           83.53       109.19      15.14       
C           84.44       108.85      14.11       
C           86.63       112.09      10.56       
C           86.22       113.5       10.64       
C           85.09       113.66      11.49       
C           83.15       108.21      16.07       
C           83.84       107.01      16.19       
C           84.82       106.74      15.22       
C           85.12       107.64      14.18       
C           86.89       114.61      10.22       
C           86.44       115.91      10.53       
C           85.29       115.99      11.32       
C           84.52       114.95      11.75       
C           82.96       111.57      15.87       
C           81.32       110.15      14.57       
C           88.07       111.99      11.15       
C           86.54       111.31      9.21        
H           86.11       109.32      11.88       
H           82.95       112.94      13.17       
H           87.89       114.53      9.77        
H           83.61       115.03      12.27       
H           82.37       108.38      16.78       
H           85.84       107.35      13.42       
H           82.36       112.42      15.61       
H           82.43       111.39      16.8        
H           83.97455    111.88042   16.11985    
H           81.26       109.42      13.78       
H           80.87       109.68      15.5        
H           80.68079    110.96876   14.23962    
H           86.93       110.28      9.14        
H           85.47       111.43      8.95        
H           87.10924    111.80719   8.42459     
H           88.77       112.52      10.54       
H           88.49       110.98      11.0        
H           88.14172    112.28406   12.19713    
H           83.15       105.94      17.98       
H           88.06       117.32      9.98        
S           85.52       105.1       15.44       
C           83.81       105.97      17.14       
C           84.53       104.79      16.83       
C           88.12       122.06      12.38       
C           88.61       121.4       11.27       
C           86.83       121.6       12.68       
N           89.77       121.76      10.68       
N           88.85       119.66      9.68        
S           90.05       120.77      9.39        
H           85.35       120.0       12.7        
H           86.17       122.1       13.47       
C           86.3        120.33      12.22       
C           88.09       120.15      10.73       
C           86.94       119.56      11.32       
C           88.71       136.1       20.23       
C           88.95       135.01      21.01       
S           89.32       135.99      18.53       
C           90.15       129.61      18.34       
C           90.2        130.74      17.53       
C           90.24       130.7       16.18       
C           90.21       129.44      15.59       
C           90.04       128.27      16.36       
C           90.08       128.34      17.74       
C           90.13       129.12      14.08       
C           89.88       127.64      14.13       
C           89.79       127.15      15.45       
C           90.02       130.04      19.78       
C           89.92       131.58      19.6        
C           90.15       131.97      18.34       
C           89.52       126.86      13.1        
C           89.31       125.44      13.3        
C           89.26       124.97      14.63       
C           89.52       125.85      15.68       
C           89.65       132.55      20.57       
C           89.44       133.91      20.23       
C           89.66       134.3       18.86       
C           90.11       133.35      17.96       
C           88.91       129.9       13.47       
C           91.46       129.4       13.37       
C           88.72       129.51      20.35       
C           91.25       129.79      20.68       
H           89.72       127.54      18.36       
H           90.45       131.58      15.64       
H           89.4        132.35      21.63       
H           90.15       133.66      16.89       
H           89.5        127.21      12.08       
H           89.32       125.53      16.69       
H           88.74       129.51      12.46       
H           89.26       130.97      13.35       
H           88.01135    129.70274   14.05449    
H           91.83       130.35      13.61       
H           91.23       129.33      12.3        
H           92.21414    128.63122   13.5384     
H           91.17       128.71      20.96       
H           91.22       130.45      21.55       
H           92.18714    130.02991   20.17769    
H           88.69       128.43      20.1        
H           88.71       129.62      21.47       
H           87.88818    130.08367   19.94126    
H           88.72       124.55      11.28       
H           88.69       134.84      22.01       
S           88.86       123.26      14.66       
C           88.96       124.4       12.37       
C           88.56       123.25      12.98       
C           85.9        139.26      21.39       
C           86.75       139.43      20.23       
C           86.22       138.15      22.09       
N           86.7        140.42      19.45       
N           88.44       138.77      18.78       
S           87.81       140.2       18.24       
H           87.24       136.37      22.43       
H           85.74       137.86      22.94       
C           87.23       137.18      21.79       
C           87.75       138.36      19.87       
C           87.97       137.23      20.65       
C           73.32       149.88      24.79       
C           73.84       149.07      25.82       
S           73.89       149.41      23.18       
C           78.33       145.01      24.68       
C           77.82       145.65      23.55       
C           78.27       145.38      22.32       
C           79.3        144.45      22.15       
C           79.79       143.8       23.26       
C           79.34       144.16      24.57       
C           79.94       143.98      20.86       
C           80.96       142.93      21.4        
C           80.94       142.97      22.79       
C           77.68       145.54      25.97       
C           76.59       146.43      25.39       
C           76.71       146.53      23.99       
C           81.95       142.3       20.68       
C           82.93       141.57      21.37       
C           82.9        141.58      22.77       
C           81.99       142.38      23.51       
C           75.62       147.21      26.06       
C           74.83       148.12      25.29       
C           74.92       148.18      23.86       
C           75.88       147.33      23.23       
C           78.92       143.34      19.89       
C           80.77       145.08      20.15       
C           77.22       144.4       26.88       
C           78.79       146.37      26.7        
H           79.82       143.72      25.41       
H           77.81       145.79      21.42       
H           75.43       147.1       27.13       
H           75.99       147.53      22.17       
H           81.86       142.22      19.64       
H           82.04       142.42      24.64       
H           79.3        143.6       18.91       
H           77.94       143.82      20.04       
H           78.69629    142.28435   20.0438     
H           81.53       145.32      20.95       
H           81.24       144.68      19.22       
H           80.21003    146.00101   19.9879     
H           79.46       145.62      27.2        
H           79.37       146.9       25.93       
H           78.44317    147.13592   27.39366    
H           78.05       143.79      27.2        
H           76.8        144.74      27.77       
H           76.45136    143.78509   26.41183    
H           84.04       140.66      19.74       
H           73.6        149.25      26.87       
S           84.24       140.58      23.28       
C           83.94       140.75      20.81       
C           84.72       140.05      21.67       
C           71.56       153.86      25.01       
C           71.22       153.06      23.85       
C           72.37       153.34      25.97       
N           70.56       153.44      22.74       
N           71.21       150.98      22.87       
S           70.42       152.07      21.92       
H           73.48       151.74      26.77       
H           72.68       153.96      26.85       
C           72.89       151.98      25.92       
C           71.72       151.7       23.83       
C           72.57       151.13      24.85       
C           66.1        168.62      30.52       
C           67.42       168.3       30.36       
S           65.17       167.53      29.48       
C           69.5        163.17      27.82       
C           68.13       163.45      27.47       
C           67.29       162.56      26.8        
C           67.84       161.34      26.47       
C           69.18       161.04      26.8        
C           70.0        161.96      27.48       
C           67.16       160.18      25.79       
C           68.36       159.21      25.63       
C           69.53       159.69      26.34       
C           70.17       164.52      28.13       
C           68.96       165.41      28.47       
C           67.75       164.8       28.0        
C           68.45       157.99      24.99       
C           69.55       157.13      25.19       
C           70.65       157.65      25.97       
C           70.68       158.93      26.4        
C           69.0        166.65      29.14       
C           67.71       167.2       29.45       
C           66.56       166.63      28.9        
C           66.52       165.41      28.11       
C           66.0        159.62      26.77       
C           66.54       160.41      24.39       
C           71.0        164.37      29.44       
C           71.08       165.09      26.92       
H           71.03       161.73      27.59       
H           66.22       162.79      26.55       
H           69.82       167.03      29.78       
H           65.52       165.01      27.76       
H           67.65       157.61      24.36       
H           71.58       159.29      26.84       
H           65.18       160.25      27.02       
H           65.6        158.79      26.22       
H           66.4819     159.25318   27.67626    
H           67.35       160.74      23.67       
H           66.26       159.45      23.93       
H           65.67072    161.06744   24.37539    
H           71.61       165.9       27.26       
H           70.34       165.32      26.16       
H           71.81385    164.36341   26.57124    
H           71.95       163.86      29.27       
H           71.23       165.35      29.85       
H           70.42803    163.81215   30.18145    
H           69.27       155.12      24.16       
H           68.2        168.83      30.92       
S           71.92       156.39      26.16       
C           69.84       155.75      24.78       
C           70.98       155.2       25.26       
C           63.69       171.15      33.29       
C           65.07       171.05      33.44       
C           63.27       170.51      32.23       
N           65.74       171.64      34.42       
N           67.19       170.28      32.95       
S           67.26       171.0       34.45       
H           63.51       169.12      30.6        
H           62.19       170.54      31.98       
C           63.98       169.69      31.38       
C           65.92       170.24      32.56       
C           65.34       169.53      31.41       
C           55.29       182.5       41.88       
C           56.43       182.65      41.16       
S           54.95       180.78      42.0        
C           59.4        178.2       38.24       
C           58.17       177.76      38.86       
C           57.63       176.48      38.59       
C           58.21       175.72      37.56       
C           59.45       176.13      37.09       
C           60.1        177.36      37.37       
C           57.78       174.47      36.79       
C           59.13       174.02      36.16       
C           60.05       175.03      36.31       
C           59.67       179.69      38.39       
C           58.51       180.11      39.3        
C           57.77       178.95      39.63       
C           59.44       172.83      35.54       
C           60.81       172.71      35.02       
C           61.76       173.76      35.24       
C           61.35       174.92      35.92       
C           58.11       181.37      39.8        
C           57.0        181.45      40.59       
C           56.29       180.31      41.01       
C           56.63       179.06      40.49       
C           57.1        173.47      37.78       
C           56.82       174.65      35.55       
C           61.07       179.88      39.01       
C           59.48       180.26      36.95       
H           60.99       177.67      36.88       
H           56.7        176.16      39.05       
H           58.63       182.28      39.38       
H           56.03       178.19      40.72       
H           58.62       172.17      35.41       
H           62.07       175.65      36.25       
H           56.68       172.7       37.09       
H           56.3        174.04      38.27       
H           57.78798    173.04444   38.51054    
H           57.42       174.93      34.68       
H           56.34       173.69      35.25       
H           56.00698    175.35789   35.7112     
H           60.16       179.86      36.27       
H           58.44       180.08      36.58       
H           59.69311    181.32556   36.86476    
H           61.78       179.99      38.17       
H           61.22       178.95      39.59       
H           61.25371    180.73242   39.66401    
H           60.91       170.79      33.86       
H           56.87       183.59      41.02       
S           63.34       173.56      34.44       
C           61.47       171.73      34.21       
C           62.76       172.01      33.99       
C           53.33       185.5       44.35       
C           52.69       184.3       43.94       
C           54.58       185.64      43.78       
N           51.58       183.78      44.52       
N           52.54       182.17      42.91       
S           51.19       182.4       43.8        
H           56.13       184.82      42.5        
H           55.15       186.49      44.0        
C           55.13       184.68      42.97       
C           53.31       183.31      43.07       
C           54.59       183.51      42.61       
C           45.04       197.68      49.03       
C           44.69       196.5       49.74       
S           46.75       197.87      49.14       
C           48.48       191.9       50.07       
C           49.14       193.16      49.92       
C           50.46       193.27      49.4        
C           50.92       192.18      48.77       
C           50.22       190.97      48.77       
C           49.04       190.75      49.52       
C           52.19       192.15      47.9        
C           52.04       190.73      47.35       
C           51.02       189.99      47.99       
C           47.04       192.04      50.53       
C           46.93       193.55      50.4        
C           48.11       194.17      50.03       
C           52.87       190.1       46.42       
C           52.6        188.74      46.12       
C           51.59       188.03      46.82       
C           50.73       188.64      47.71       
C           45.71       194.26      50.41       
C           45.71       195.58      49.93       
C           46.97       196.24      49.79       
C           48.18       195.58      49.86       
C           52.07       193.15      46.74       
C           53.55       192.14      48.63       
C           46.11       191.39      49.53       
C           46.63       191.65      51.96       
H           48.51       189.77      49.46       
H           50.83       194.25      49.13       
H           44.81       193.67      50.55       
H           49.05       196.14      49.59       
H           53.72       190.59      46.07       
H           49.97       188.07      48.28       
H           51.96       194.12      47.18       
H           52.97       193.12      46.08       
H           51.17026    192.92149   46.16873    
H           53.47       191.66      49.66       
H           54.21       191.49      48.09       
H           54.07115    193.08411   48.78861    
H           45.97       190.79      51.87       
H           46.03       192.54      52.25       
H           47.43307    191.47636   52.67626    
H           46.03       190.41      49.66       
H           45.16       191.75      49.85       
H           46.29705    191.63247   48.4839     
H           54.11       188.21      44.59       
H           43.65       196.27      50.03       
S           51.38       186.39      46.33       
C           53.24       187.87      45.19       
C           52.76       186.57      45.22       
C           42.88       201.22      47.84       
C           42.18       200.11      48.27       
C           44.24       201.09      47.66       
N           40.89       200.14      48.61       
N           42.0        198.05      49.29       
S           40.54       198.7       49.31       
H           46.09       199.93      47.77       
H           44.9        201.87      47.33       
C           45.01       199.91      47.94       
C           42.89       198.94      48.7        
C           44.33       198.82      48.55       
C           39.88       216.73      51.37       
C           41.04       216.19      50.99       
S           38.61       215.48      51.34       
C           41.5        210.75      48.3        
C           40.27       211.03      48.92       
C           39.2        210.06      48.97       
C           39.53       208.81      48.47       
C           40.79       208.54      47.95       
C           41.71       209.49      47.76       
C           38.66       207.49      48.51       
C           39.62       206.53      47.78       
C           40.93       207.09      47.68       
C           42.52       211.86      48.53       
C           41.66       212.89      49.27       
C           40.38       212.31      49.56       
C           39.53       205.16      47.58       
C           40.76       204.38      47.56       
C           41.99       205.06      47.44       
C           42.12       206.4       47.42       
C           41.93       214.15      49.69       
C           40.96       214.9       50.38       
C           39.71       214.33      50.54       
C           39.36       213.02      50.18       
C           38.44       207.18      50.08       
C           37.28       207.72      47.83       
C           43.72       211.4       49.42       
C           42.96       212.7       47.29       
H           42.68       209.24      47.33       
H           38.25       210.34      49.4        
H           42.99       214.55      49.62       
H           38.36       212.71      50.24       
H           38.52       204.74      47.6        
H           43.04       206.95      47.38       
H           37.39       206.82      50.28       
H           38.6        208.07      50.66       
H           39.11399    206.42714   50.4887     
H           36.66       208.29      48.58       
H           36.71       206.79      47.68       
H           37.36016    208.14997   46.8316     
H           43.65       213.49      47.65       
H           42.13       213.14      46.68       
H           43.56438    212.10967   46.60128    
H           44.46       210.74      48.95       
H           44.22       212.35      49.76       
H           43.4041     210.89456   50.3326     
H           40.15       202.22      47.69       
H           41.92       216.72      51.0        
S           43.31       203.91      47.63       
C           40.96       202.97      47.64       
C           42.22       202.58      47.68       
C           39.51       220.01      54.36       
C           38.37       219.54      53.68       
C           40.66       219.45      53.92       
N           37.15       220.12      53.79       
N           37.26       218.22      52.01       
S           36.17       219.3       52.71       
H           41.69       218.09      52.83       
H           41.59       219.82      54.4        
C           40.72       218.42      52.92       
C           38.41       218.5       52.63       
C           39.62       217.92      52.24       
H           103.33      52.19       8.14        
H           39.46       220.6       55.28       
