612

C           38.0        83.69       96.11       
C           37.76       83.05       97.3        
S           36.56       84.54       95.63       
C           32.16       83.27       100.02      
C           32.31       83.92       98.83       
C           31.33       84.72       98.21       
C           30.2        84.99       99.01       
C           30.02       84.45       100.33      
C           31.05       83.54       100.77      
C           28.98       85.83       98.58       
C           28.07       85.82       99.85       
C           28.66       84.82       100.73      
C           33.53       82.62       100.42      
C           34.37       82.96       99.25       
C           33.64       83.65       98.3        
C           26.82       86.36       100.13      
C           26.17       85.99       101.34      
C           26.78       85.02       102.16      
C           28.0        84.35       101.85      
C           35.77       82.64       99.02       
C           36.41       83.11       97.85       
C           35.59       83.82       96.94       
C           34.24       84.16       97.09       
C           29.37       87.25       98.14       
C           28.32       85.18       97.36       
C           34.16       83.24       101.65      
C           33.45       81.06       100.51      
H           30.98       83.02       101.77      
H           31.45       85.32       97.28       
H           36.42       82.17       99.82       
H           33.7        84.67       96.28       
H           26.34       87.03       99.44       
H           28.38       83.6        102.5       
H           28.58       87.78       97.55       
H           30.12       87.11       97.38       
H           29.81946    87.84693    98.93357    
H           29.0        85.22       96.5        
H           27.38       85.65       97.06       
H           28.15156    84.11323    97.50738    
H           34.42       80.59       100.76      
H           33.2        80.73       99.44       
H           32.67989    80.67494    101.1784    
H           33.63       83.02       102.57      
H           35.1        82.7        101.86      
H           34.45307    84.28361    101.53563   
H           24.25       87.22       101.47      
H           38.53       82.47       97.81       
S           25.85       84.9        103.64      
C           24.98       86.6        101.96      
C           24.71       86.07       103.17      
C           41.2        83.73       93.19       
C           41.52       83.41       94.53       
C           39.91       84.1        93.0        
N           42.69       83.06       94.99       
N           40.95       82.87       96.66       
S           42.58       82.65       96.61       
H           37.99       84.5        93.62       
H           39.61       84.48       92.05       
C           38.86       84.1        93.99       
C           40.53       83.32       95.49       
C           39.16       83.77       95.3        
C           49.2        78.47       79.68       
C           47.91       78.74       79.69       
S           49.94       78.79       81.24       
C           44.95       80.86       84.69       
C           46.39       80.64       84.79       
C           47.08       81.01       85.87       
C           46.42       81.68       86.86       
C           45.03       81.73       86.84       
C           44.25       81.29       85.79       
C           46.9        82.07       88.3        
C           45.6        82.56       88.91       
C           44.5        82.36       88.02       
C           44.48       80.35       83.34       
C           45.78       79.86       82.67       
C           46.86       80.11       83.54       
C           45.32       82.99       90.18       
C           43.97       83.13       90.61       
C           42.93       83.04       89.67       
C           43.19       82.68       88.36       
C           46.03       79.43       81.36       
C           47.37       79.2        80.96       
C           48.39       79.34       81.94       
C           48.1        79.76       83.22       
C           47.5        80.98       89.22       
C           47.83       83.36       88.2        
C           43.46       79.24       83.64       
C           43.72       81.38       82.48       
H           43.26       81.76       85.61       
H           48.08       80.65       85.94       
H           45.31       79.39       80.59       
H           48.92       79.82       83.98       
H           46.14       83.03       90.96       
H           42.43       82.29       87.66       
H           48.52       80.72       88.98       
H           47.41       81.36       90.18       
H           46.93226    80.05097    89.16839    
H           47.27       84.12       87.64       
H           48.02       83.82       89.19       
H           48.76802    83.143      87.68899    
H           42.81       81.65       82.97       
H           43.4        80.86       81.5        
H           44.36314    82.24239    82.3046     
H           42.48       79.7        83.97       
H           43.28       78.76       82.7        
H           43.7942     78.4352     84.29475    
H           44.19       83.55       92.77       
H           47.26       78.6        78.87       
S           41.41       83.41       90.46       
C           43.5        83.38       91.97       
C           42.11       83.62       92.03       
C           52.09       78.15       76.45       
C           50.75       78.41       76.1        
C           52.36       77.99       77.74       
N           50.28       78.69       74.84       
N           48.46       78.74       76.66       
S           48.66       78.89       75.06       
H           51.78       77.98       79.81       
H           53.4        77.87       78.1        
C           51.39       78.09       78.78       
C           49.65       78.43       77.14       
C           50.06       78.32       78.57       
C           64.98       86.09       69.3        
C           63.82       86.62       69.86       
S           64.94       84.37       69.65       
C           59.29       83.52       72.42       
C           60.41       82.71       72.13       
C           60.41       81.31       72.37       
C           59.24       80.76       72.79       
C           58.1        81.54       72.98       
C           58.13       82.92       72.81       
C           59.0        79.28       73.15       
C           57.52       79.4        73.63       
C           57.0        80.72       73.46       
C           59.69       85.01       72.39       
C           61.04       84.9        71.75       
C           61.45       83.6        71.6        
C           56.76       78.47       74.31       
C           55.38       78.7        74.62       
C           54.9        79.96       74.38       
C           55.64       80.95       73.8        
C           61.81       85.96       71.26       
C           62.98       85.64       70.55       
C           63.45       84.33       70.44       
C           62.67       83.28       70.93       
C           59.13       78.39       71.89       
C           60.08       78.83       74.1        
C           58.69       85.83       71.51       
C           59.87       85.68       73.78       
H           57.28       83.49       73.07       
H           61.27       80.77       71.98       
H           61.41       86.99       71.36       
H           62.97       82.24       70.86       
H           57.16       77.4        74.41       
H           55.18       81.95       73.64       
H           60.21       78.23       71.67       
H           58.8        78.89       71.0        
H           58.60572    77.4348     71.91873    
H           61.02       78.76       73.58       
H           59.85       77.76       74.3        
H           60.18483    79.50092    74.95263    
H           59.58       86.71       73.64       
H           60.91       85.64       74.01       
H           59.21552    85.35628    74.5893     
H           57.76       85.86       72.07       
H           58.99       86.82       71.31       
H           58.49841    85.40998    70.52259    
H           54.67       76.93       75.71       
H           63.53       87.66       69.78       
S           53.17       79.97       74.8        
C           54.42       77.91       75.31       
C           53.16       78.37       75.53       
C           68.57       88.17       67.86       
C           67.26       88.69       67.61       
C           68.53       87.04       68.58       
N           67.0        89.87       66.91       
N           64.93       88.66       67.69       
S           65.32       90.08       66.99       
H           67.58       85.38       69.42       
H           69.44       86.59       68.84       
C           67.38       86.3        68.89       
C           66.09       88.02       68.07       
C           66.09       86.75       68.75       
C           82.99       94.11       62.96       
C           82.95       92.89       63.63       
S           81.68       95.13       63.41       
C           77.92       91.06       66.53       
C           77.87       92.33       65.96       
C           76.7        93.1        65.76       
C           75.48       92.54       66.11       
C           75.6        91.26       66.75       
C           76.72       90.55       67.06       
C           74.12       92.85       65.62       
C           73.34       91.77       66.33       
C           74.23       90.86       66.97       
C           79.25       90.31       66.16       
C           80.06       91.49       65.62       
C           79.28       92.67       65.58       
C           71.96       91.61       66.27       
C           71.42       90.4        66.84       
C           72.25       89.5        67.54       
C           73.65       89.75       67.68       
C           81.31       91.5        65.03       
C           81.77       92.68       64.39       
C           80.98       93.87       64.45       
C           79.72       93.87       65.07       
C           73.87       94.26       66.23       
C           74.07       92.89       64.04       
C           80.03       89.54       67.3        
C           78.97       89.38       64.97       
H           76.62       89.56       67.53       
H           76.79       94.09       65.38       
H           82.04       90.63       65.14       
H           79.19       94.75       65.06       
H           71.27       92.26       65.73       
H           74.2        88.96       68.17       
H           74.49       95.01       65.78       
H           72.85       94.64       65.97       
H           73.93232    94.39157    67.31023    
H           74.83       93.56       63.66       
H           73.11       93.33       63.84       
H           74.2625     91.90611    63.61222    
H           79.83       89.32       64.36       
H           78.27       89.87       64.3        
H           78.51276    88.42266    65.22005    
H           79.31       89.07       67.99       
H           80.5        88.66       66.78       
H           80.65189    90.19081    67.91466    
H           69.28       90.53       66.48       
H           83.61       92.08       63.46       
S           71.34       88.2        68.12       
C           70.06       89.96       66.9        
C           69.84       88.81       67.58       
C           86.28       94.84       60.16       
C           85.32       93.85       59.9        
C           86.07       95.56       61.36       
N           85.28       93.03       58.81       
N           83.37       92.68       60.37       
S           83.87       92.24       58.82       
H           84.8        96.01       63.1        
H           86.74       96.32       61.74       
C           84.9        95.39       62.15       
C           84.16       93.67       60.77       
C           83.91       94.52       61.87       
C           96.71       101.65      49.37       
C           96.97       101.59      50.69       
S           95.47       100.49      48.98       
C           93.81       98.3        54.75       
C           93.59       97.93       53.42       
C           92.46       97.15       53.04       
C           91.66       96.71       54.08       
C           91.99       96.96       55.47       
C           93.12       97.76       55.76       
C           90.26       96.17       53.9        
C           89.86       95.91       55.37       
C           90.83       96.5        56.24       
C           94.69       99.56       54.78       
C           95.23       99.64       53.36       
C           94.5        98.74       52.55       
C           88.75       95.26       55.78       
C           88.47       95.4        57.11       
C           89.36       96.09       58.06       
C           90.58       96.58       57.62       
C           96.07       100.63      52.83       
C           96.12       100.7       51.4        
C           95.32       99.85       50.6        
C           94.49       98.9        51.18       
C           89.4        97.29       53.29       
C           90.18       94.83       53.12       
C           93.99       100.87      55.23       
C           96.04       99.28       55.57       
H           93.31       98.07       56.79       
H           92.28       96.87       51.97       
H           96.74       101.26      53.41       
H           93.86       98.26       50.6        
H           88.07       94.77       55.09       
H           91.4        96.73       58.26       
H           89.7        97.29       52.19       
H           89.63       98.22       53.77       
H           88.31967    97.15406    53.34008    
H           90.5        95.1        52.11       
H           89.1        94.52       53.03       
H           90.87626    94.08549    53.50604    
H           96.74       100.09      55.43       
H           96.47       98.3        55.16       
H           95.8755     99.17987    56.64285    
H           93.66       100.7       56.28       
H           94.75       101.62      55.36       
H           93.18133    101.2676    54.61676    
H           86.44       94.57       57.28       
H           97.62       102.24      51.18       
S           88.78       95.98       59.64       
C           87.28       95.0        57.81       
C           87.27       95.23       59.17       
C           97.73       104.79      46.42       
C           98.36       104.81      47.74       
C           96.89       103.75      46.2        
N           99.24       105.73      48.28       
N           98.78       103.88      49.83       
S           99.73       105.2       49.74       
H           95.82       101.96      46.93       
H           96.45       103.61      45.26       
C           96.53       102.71      47.2        
C           98.08       103.74      48.71       
C           97.13       102.67      48.42       
C           97.3        119.8       40.33       
C           98.21       119.43      41.24       
S           96.33       118.38      39.79       
C           99.18       113.4       42.19       
C           97.99       113.7       41.5        
C           97.19       112.72      40.95       
C           97.4        111.41      41.36       
C           98.51       111.09      42.12       
C           99.4        112.06      42.48       
C           96.5        110.17      41.14       
C           97.09       109.19      42.21       
C           98.42       109.7       42.66       
C           100.07      114.62      42.38       
C           99.14       115.72      41.97       
C           97.97       115.14      41.36       
C           96.55       108.1       42.78       
C           97.36       107.41      43.71       
C           98.64       107.89      44.11       
C           99.22       109.02      43.53       
C           99.3        117.15      42.03       
C           98.35       117.97      41.38       
C           97.31       117.25      40.65       
C           97.01       115.86      40.71       
C           95.01       110.36      41.52       
C           96.74       109.6       39.71       
C           100.62      114.85      43.79       
C           101.23      114.74      41.37       
H           100.22      111.76      43.14       
H           96.34       112.95      40.31       
H           100.21      117.55      42.5        
H           96.12       115.34      40.36       
H           95.57       107.7       42.48       
H           100.11      109.45      43.98       
H           94.64       111.12      40.88       
H           94.43       109.47      41.19       
H           94.7647     110.63504   42.54581    
H           97.8        109.6       39.49       
H           96.28       108.6       39.66       
H           96.31933    110.22031   38.91857    
H           101.93      115.61      41.53       
H           100.73      114.87      40.39       
H           101.84664   113.85008   41.24387    
H           101.44      114.12      44.04       
H           100.99      115.83      43.87       
H           99.86393    114.78978   44.57283    
H           96.05       105.62      44.31       
H           98.95       120.09      41.71       
S           99.16       106.92      45.41       
C           96.98       106.17      44.41       
C           97.87       105.78      45.36       
C           96.69       123.06      37.39       
C           97.8        123.12      38.32       
C           95.7        122.15      37.78       
N           98.87       123.92      38.28       
N           98.99       122.33      40.24       
S           99.85       123.59      39.58       
H           95.11       120.37      38.89       
H           94.91       121.94      37.17       
C           95.9        121.12      38.81       
C           97.95       122.12      39.44       
C           97.02       121.01      39.56       
C           98.69       125.67      21.1        
C           99.61       126.09      22.03       
S           97.18       125.3       21.94       
C           98.78       125.42      28.1        
C           97.62       125.33      27.27       
C           96.36       125.04      27.88       
C           96.21       124.86      29.27       
C           97.42       124.95      30.04       
C           98.65       125.19      29.47       
C           95.1        124.16      30.1        
C           95.64       124.39      31.5        
C           97.01       124.75      31.41       
C           100.05      125.69      27.28       
C           99.39       125.81      25.89       
C           98.02       125.56      25.93       
C           95.05       124.01      32.71       
C           95.93       124.01      33.87       
C           97.31       124.33      33.7        
C           97.89       124.75      32.5        
C           100.0       125.95      24.66       
C           99.29       125.85      23.43       
C           97.91       125.51      23.55       
C           97.25       125.27      24.76       
C           93.78       124.99      30.01       
C           94.88       122.65      29.75       
C           100.75      126.97      27.77       
C           101.0       124.45      27.32       
H           99.56       125.25      30.11       
H           95.47       124.97      27.24       
H           101.05      126.26      24.64       
H           96.17       125.11      24.75       
H           94.06       123.67      32.82       
H           98.98       124.99      32.44       
H           93.44       124.93      28.96       
H           93.02       124.43      30.56       
H           93.84671    126.01289   30.38061    
H           95.69       122.01      30.02       
H           93.97       122.32      30.38       
H           94.62447    122.46545   28.70657    
H           101.39      124.26      28.31       
H           101.86      124.65      26.69       
H           100.60362   123.62185   26.73251    
H           101.66      126.82      28.27       
H           100.12      127.39      28.54       
H           100.87209   127.69538   26.96562    
H           94.65       123.32      35.63       
H           100.69      126.36      21.81       
S           98.15       123.98      35.18       
C           95.57       123.7       35.24       
C           96.65       123.66      36.06       
C           98.79       125.24      16.75       
C           100.01      125.6       17.45       
C           97.71       125.27      17.48       
N           101.2       125.95      16.89       
N           101.1       126.41      19.3        
S           102.19      126.54      18.05       
H           96.71       125.23      19.3        
H           96.75       125.05      16.97       
C           97.71       125.33      18.88       
C           99.96       125.83      18.86       
C           98.78       125.6       19.62       
C           96.5        117.33      2.9         
C           95.47       117.7       3.74        
S           97.89       118.31      3.21        
C           95.95       121.94      7.99        
C           97.08       121.8       7.15        
C           98.26       122.41      7.46        
C           98.4        123.09      8.65        
C           97.32       123.14      9.5         
C           96.11       122.58      9.17        
C           99.58       123.89      9.22        
C           99.0        124.31      10.59       
C           97.67       123.85      10.73       
C           94.76       120.98      7.6         
C           95.43       120.25      6.43        
C           96.74       120.85      6.12        
C           99.67       124.9       11.68       
C           99.08       124.81      12.98       
C           97.79       124.29      13.11       
C           97.01       123.9       11.99       
C           94.91       119.28      5.66        
C           95.75       118.72      4.7         
C           97.08       119.19      4.51        
C           97.6        120.3       5.19        
C           100.79      122.88      9.49        
C           99.99       125.15      8.37        
C           94.29       119.97      8.72        
C           93.53       121.74      7.14        
H           95.24       122.62      9.87        
H           99.21       122.12      6.93        
H           93.94       118.85      5.84        
H           98.56       120.65      4.94        
H           100.75      125.16      11.47       
H           96.02       123.56      12.06       
H           101.61      123.41      9.94        
H           101.16      122.57      8.57        
H           100.50111   122.0697    10.15938    
H           100.65      124.86      7.6         
H           100.39      125.98      8.95        
H           99.14281    125.61667   7.86743     
H           92.71       121.66      7.89        
H           93.25       121.32      6.2         
H           93.72295    122.77899   6.87283     
H           93.35       119.46      8.42        
H           93.78       120.53      9.5         
H           95.01336    119.21047   9.01658     
H           100.4       125.89      14.42       
H           94.54       117.11      3.64        
S           97.19       124.24      14.73       
C           99.58       125.26      14.25       
C           98.69       125.0       15.29       
C           96.35       114.01      -0.01       
C           96.92       115.34      -0.41       
C           96.08       113.92      1.27        
N           97.17       115.86      -1.66       
N           97.42       117.6       0.1         
S           97.69       117.4       -1.5        
H           95.82       114.68      3.22        
H           95.77       112.98      1.65        
C           96.11       114.95      2.23        
C           96.96       116.43      0.56        
C           96.53       116.18      1.91        
C           92.67       100.54      -8.69       
C           91.9        101.07      -7.66       
S           94.05       101.54      -8.87       
C           93.08       106.38      -4.89       
C           94.04       105.94      -5.81       
C           95.17       106.78      -6.06       
C           95.27       107.94      -5.41       
C           94.32       108.23      -4.36       
C           93.25       107.44      -4.06       
C           96.24       109.15      -5.69       
C           95.97       109.88      -4.39       
C           94.89       109.37      -3.67       
C           91.9        105.38      -4.82       
C           92.44       104.25      -5.68       
C           93.57       104.68      -6.44       
C           96.6        111.08      -4.01       
C           96.18       111.62      -2.8        
C           95.11       111.02      -2.05       
C           94.49       109.83      -2.46       
C           91.76       103.14      -6.15       
C           92.29       102.28      -7.11       
C           93.51       102.7       -7.7        
C           94.14       103.92      -7.42       
C           97.74       108.71      -5.69       
C           95.76       109.89      -7.04       
C           91.52       104.79      -3.4        
C           90.72       105.98      -5.6        
H           92.53       107.67      -3.25       
H           95.97       106.55      -6.75       
H           90.84       102.89      -5.65       
H           95.1        104.18      -7.91       
H           97.35       111.57      -4.58       
H           93.82       109.29      -1.85       
H           98.06       108.17      -6.64       
H           98.4        109.53      -5.63       
H           97.98425    107.98442   -4.91413    
H           94.69       110.12      -6.89       
H           96.2        110.83      -7.04       
H           95.95885    109.27923   -7.92064    
H           89.84       105.53      -5.19       
H           90.79       105.65      -6.62       
H           90.62004    107.06531   -5.58572    
H           90.88       103.99      -3.58       
H           90.88       105.38      -2.78       
H           92.35247    104.37014   -2.83537    
H           97.51       113.43      -2.49       
H           91.02       100.56      -7.27       
S           94.7        111.96      -0.57       
C           96.71       112.77      -2.17       
C           96.14       112.93      -0.93       
C           92.42       96.7        -10.9       
C           91.24       97.35       -10.33      
C           93.55       97.43       -10.72      
N           89.98       96.92       -10.45      
N           90.13       99.08       -9.16       
S           89.03       97.91       -9.54       
H           94.62       99.13       -9.97       
H           94.51       97.07       -11.06      
C           93.63       98.66       -10.02      
C           91.32       98.61       -9.56       
C           92.55       99.29       -9.48       
C           94.71       82.66       -19.52      
C           95.6        83.1        -18.65      
S           93.46       83.86       -19.83      
C           94.84       88.18       -15.27      
C           93.94       87.86       -16.27      
C           92.72       88.54       -16.32      
C           92.46       89.51       -15.32      
C           93.5        89.94       -14.45      
C           94.72       89.27       -14.42      
C           91.22       90.45       -15.14      
C           91.79       91.49       -14.19      
C           93.13       91.17       -13.77      
C           96.0        87.2        -15.4       
C           95.59       86.32       -16.55      
C           94.36       86.77       -17.14      
C           91.2        92.67       -13.81      
C           91.98       93.52       -12.99      
C           93.19       93.07       -12.41      
C           93.78       91.9        -12.81      
C           96.06       85.09       -17.05      
C           95.35       84.43       -18.08      
C           94.21       84.97       -18.62      
C           93.65       86.16       -18.12      
C           90.69       91.04       -16.48      
C           90.08       89.71       -14.33      
C           97.29       88.04       -15.72      
C           96.13       86.32       -14.08      
H           95.44       89.54       -13.71      
H           91.94       88.29       -17.02      
H           96.97       84.62       -16.69      
H           92.67       86.52       -18.48      
H           90.17       92.96       -14.1       
H           94.85       91.69       -12.47      
H           90.58       90.26       -17.21      
H           89.69       91.43       -16.4       
H           91.3326     91.79559    -16.93194   
H           90.36       89.34       -13.28      
H           89.33       90.43       -14.15      
H           89.65786    88.87276    -14.88581   
H           96.69       85.41       -14.33      
H           95.16       85.84       -14.0       
H           96.64136    86.67025    -13.18337   
H           97.57       88.53       -14.84      
H           98.12       87.36       -15.77      
H           97.15966    88.72602    -16.55695   
H           90.68       95.36       -12.66      
H           96.53       82.56       -18.5       
S           93.83       94.37       -11.37      
C           91.59       94.83       -12.45      
C           92.48       95.48       -11.68      
C           94.78       79.14       -22.24      
C           95.98       79.65       -21.8       
C           93.64       79.91       -21.95      
N           97.14       79.24       -22.31      
N           97.26       81.08       -20.44      
S           98.25       80.01       -21.3       
H           92.73       81.62       -20.8       
H           92.67       79.56       -22.35      
C           93.64       81.05       -21.03      
C           96.0        80.8        -20.87      
C           94.79       81.51       -20.41      
H           24.12       86.57       103.91      
H           94.67       78.36       -23.09      
