612

C           97.29       10.36       73.16       
C           97.82       9.29        73.79       
S           95.59       10.23       73.08       
C           94.54       4.15        74.61       
C           93.83       5.3         74.14       
C           92.45       5.19        73.8        
C           91.78       3.97        73.88       
C           92.59       2.82        74.22       
C           93.89       2.88        74.71       
C           90.36       3.58        73.48       
C           90.49       2.09        73.39       
C           91.71       1.69        73.98       
C           96.0        4.49        75.04       
C           96.03       5.94        74.49       
C           94.75       6.42        74.1        
C           89.46       1.15        73.17       
C           89.75       -0.21       73.51       
C           90.99       -0.56       74.03       
C           91.97       0.36        74.29       
C           97.11       6.85        74.45       
C           96.94       8.21        73.95       
C           95.61       8.55        73.56       
C           94.53       7.74        73.67       
C           89.23       4.05        74.4        
C           90.07       4.13        72.08       
C           96.1        4.38        76.56       
C           97.09       3.79        74.17       
H           94.41       1.99        75.07       
H           91.88       6.03        73.41       
H           98.12       6.55        74.9        
H           93.53       8.02        73.27       
H           88.42       1.38        72.77       
H           92.96       0.02        74.66       
H           89.32       5.13        74.52       
H           88.29       3.82        73.97       
H           89.34273    3.58498     75.37936    
H           90.95       3.99        71.46       
H           89.34       3.55        71.6        
H           89.78267    5.17158     71.93633    
H           98.07       4.31        74.47       
H           96.96       4.06        73.04       
H           97.13326    2.70862     74.29977    
H           96.06       3.35        76.85       
H           97.02       4.83        76.94       
H           95.23068    4.74641     77.10602    
H           87.84       -1.32       73.05       
H           98.9        9.23        74.04       
S           91.07       -2.35       74.28       
C           88.87       -1.38       73.39       
C           89.41       -2.55       73.76       
C           98.53       14.44       71.96       
C           99.39       13.59       72.77       
C           97.43       13.8        71.53       
N           100.57      13.93       73.35       
N           99.76       11.66       74.16       
S           100.94      12.77       74.46       
H           96.17       12.08       71.47       
H           96.72       14.37       70.96       
C           97.11       12.47       71.87       
C           99.01       12.26       73.25       
C           97.8        11.68       72.76       
C           100.15      29.0        64.9        
C           99.1        28.78       65.71       
S           101.37      27.75       65.04       
C           98.59       23.84       69.18       
C           99.9        24.14       68.73       
C           100.98      23.29       69.04       
C           100.73      22.22       69.91       
C           99.42       21.87       70.22       
C           98.31       22.65       69.84       
C           101.67      21.09       70.38       
C           100.77      20.04       70.88       
C           99.43       20.47       70.69       
C           97.66       25.01       68.87       
C           98.6        25.82       67.94       
C           99.88       25.22       67.8        
C           101.07      18.74       71.21       
C           100.08      17.79       71.22       
C           98.75       18.28       70.99       
C           98.41       19.57       70.74       
C           98.31       27.0        67.33       
C           99.22       27.52       66.44       
C           100.43      26.85       66.24       
C           100.84      25.7        66.93       
C           102.58      20.42       69.29       
C           102.38      21.61       71.68       
C           96.49       24.54       67.89       
C           97.22       25.78       70.21       
H           97.31       22.27       70.08       
H           101.98      23.39       68.58       
H           97.37       27.59       67.55       
H           101.76      25.14       66.66       
H           102.14      18.35       71.18       
H           97.36       19.84       70.55       
H           103.37      21.17       68.89       
H           103.12      19.61       69.86       
H           102.0014    19.99521    68.46971    
H           101.73      21.65       72.57       
H           103.14      20.97       71.92       
H           102.73829   22.63664    71.60421    
H           97.93       26.54       70.39       
H           97.24       25.07       71.01       
H           96.23972    26.25614    70.23101    
H           95.83       23.69       68.13       
H           95.8        25.32       67.56       
H           96.7804     24.19293    66.89838    
H           101.07      15.86       71.85       
H           98.3        29.47       65.85       
S           97.6        16.92       71.1        
C           100.15      16.4        71.53       
C           98.93       15.77       71.48       
C           100.71      32.01       61.68       
C           99.83       32.26       62.74       
C           101.31      30.8        61.83       
N           99.16       33.41       62.83       
N           98.76       31.89       64.79       
S           98.24       33.31       64.21       
H           101.59      28.97       62.88       
H           101.9       30.38       60.99       
C           101.13      29.94       62.91       
C           99.61       31.39       63.91       
C           100.36      30.16       64.0        
C           103.39      39.64       47.48       
C           104.42      39.65       48.37       
S           101.85      39.48       48.31       
C           103.54      37.49       54.07       
C           102.43      37.93       53.33       
C           101.1       37.76       53.79       
C           100.98      37.1        54.98       
C           102.07      36.61       55.69       
C           103.4       36.81       55.24       
C           99.63       36.58       55.65       
C           100.15      35.98       56.99       
C           101.61      35.97       56.89       
C           104.88      38.05       53.35       
C           104.28      38.46       51.97       
C           102.87      38.42       52.06       
C           99.46       35.21       57.91       
C           100.25      34.35       58.79       
C           101.7       34.35       58.68       
C           102.34      35.21       57.79       
C           104.91      38.99       50.88       
C           104.11      39.24       49.74       
C           102.66      39.19       49.85       
C           102.0       38.77       51.01       
C           98.81       37.92       55.9        
C           98.81       35.61       54.78       
C           105.41      39.31       54.1        
C           105.89      36.82       53.39       
H           104.24      36.52       55.84       
H           100.29      37.93       53.11       
H           106.0       39.01       50.76       
H           100.94      38.62       50.98       
H           98.36       35.19       57.97       
H           103.45      35.06       57.72       
H           98.45       38.3        54.95       
H           99.59       38.59       56.21       
H           97.96298    37.927      56.58601    
H           98.59       36.03       53.78       
H           97.89       35.44       55.21       
H           99.35891    34.67107    54.70777    
H           106.12      36.62       54.47       
H           105.38      35.97       53.0        
H           106.8546    37.0173     52.92232    
H           105.94      38.9        54.96       
H           106.2       39.82       53.52       
H           104.64438   39.93839    54.55504    
H           98.74       33.4        60.04       
H           105.45      39.85       48.01       
S           102.39      33.26       59.9        
C           99.8        33.45       59.81       
C           100.77      32.8        60.49       
C           103.27      40.43       43.09       
C           104.49      39.95       43.74       
C           102.26      40.55       44.07       
N           105.66      39.69       43.16       
N           105.75      39.09       45.56       
S           106.75      39.03       44.25       
H           101.38      40.49       46.03       
H           101.28      41.02       43.73       
C           102.32      40.36       45.46       
C           104.56      39.67       45.2        
C           103.42      39.86       46.04       
C           102.22      44.68       27.04       
C           101.05      44.7        27.73       
S           103.69      44.62       28.07       
C           101.15      43.48       33.79       
C           102.36      43.85       33.2        
C           103.55      43.85       33.96       
C           103.55      43.45       35.33       
C           102.31      43.11       35.93       
C           101.15      43.16       35.17       
C           104.72      43.42       36.33       
C           104.1       42.72       37.5        
C           102.67      42.63       37.28       
C           99.97       43.52       32.81       
C           100.73      43.82       31.47       
C           102.12      44.11       31.8        
C           104.66      42.18       38.67       
C           103.84      41.66       39.68       
C           102.41      41.64       39.47       
C           101.85      42.08       38.28       
C           100.31      43.99       30.17       
C           101.21      44.29       29.11       
C           102.56      44.46       29.47       
C           103.01      44.36       30.76       
C           105.84      42.62       35.62       
C           105.19      44.83       36.74       
C           99.23       42.17       32.79       
C           99.03       44.68       33.25       
H           100.15      43.01       35.63       
H           104.39      44.07       33.33       
H           99.25       44.03       30.07       
H           104.04      44.62       30.94       
H           105.71      42.35       38.83       
H           100.75      42.2        38.13       
H           106.13      43.12       34.67       
H           105.35      41.75       35.19       
H           106.67932   42.20387    36.1772     
H           105.73      45.23       35.86       
H           105.82      44.93       37.62       
H           104.3923    45.54936    36.92518    
H           98.56       44.26       34.15       
H           99.66       45.53       33.53       
H           98.2751     44.89987    32.4951     
H           98.19       42.09       32.48       
H           99.11       41.87       33.85       
H           99.78706    41.39155    32.26865    
H           105.32      41.12       41.23       
H           100.05      44.9        27.29       
S           101.71      40.98       40.95       
C           104.28      41.18       40.91       
C           103.26      40.84       41.71       
C           103.23      46.04       22.97       
C           101.89      45.65       23.26       
C           104.15      45.66       23.9        
N           100.87      45.6        22.38       
N           100.24      44.9        24.66       
S           99.54       45.07       23.15       
H           104.6       44.81       25.83       
H           105.22      45.88       23.67       
C           103.77      45.11       25.18       
C           101.5       45.23       24.61       
C           102.46      44.95       25.61       
C           108.66      54.97       10.11       
C           109.52      54.7        11.14       
S           107.13      54.09       10.21       
C           107.7       50.94       15.67       
C           106.82      51.06       14.54       
C           105.56      50.37       14.54       
C           105.35      49.62       15.74       
C           106.18      49.6        16.84       
C           107.44      50.23       16.81       
C           104.13      48.69       15.94       
C           104.36      48.28       17.4        
C           105.58      48.8        17.88       
C           109.05      51.61       15.37       
C           108.66      52.36       14.06       
C           107.39      51.94       13.55       
C           103.6       47.47       18.21       
C           103.98      47.35       19.53       
C           105.17      47.85       20.04       
C           105.98      48.66       19.25       
C           109.31      53.33       13.36       
C           108.91      53.77       12.09       
C           107.63      53.27       11.61       
C           106.87      52.4        12.35       
C           102.75      49.42       15.88       
C           104.23      47.36       15.17       
C           109.39      52.57       16.54       
C           110.23      50.63       15.06       
H           108.05      50.38       17.67       
H           104.89      50.45       13.67       
H           110.27      53.6        13.78       
H           105.92      52.07       12.08       
H           102.62      47.14       17.9        
H           106.92      49.07       19.63       
H           102.63      49.75       14.91       
H           101.97      48.72       16.2        
H           102.72106   50.28821    16.53839    
H           105.28      47.18       15.2        
H           103.72      46.52       15.66       
H           103.97187   47.45588    14.11535    
H           111.2       51.15       15.14       
H           110.2       50.21       14.04       
H           110.27316   49.75955    15.71464    
H           109.62      51.96       17.4        
H           110.28      53.12       16.13       
H           108.60599   53.30545    16.72039    
H           102.23      46.16       20.16       
H           110.54      55.07       11.22       
S           105.32      47.45       21.79       
C           103.17      46.67       20.48       
C           103.76      46.59       21.71       
C           109.55      57.32       6.47        
C           110.21      57.62       7.73        
C           108.75      56.26       6.59        
N           111.07      58.65       7.91        
N           110.68      57.29       10.01       
S           111.62      58.6        9.44        
H           107.76      54.73       7.6         
H           108.29      55.83       5.65        
C           108.42      55.58       7.77        
C           109.94      56.89       8.97        
C           108.92      55.84       8.98        
C           112.25      61.68       -9.3        
C           111.18      60.96       -8.86       
S           113.1       62.17       -7.9        
C           110.04      59.7        -3.06       
C           111.15      60.52       -3.28       
C           111.95      61.06       -2.27       
C           111.61      60.71       -0.95       
C           110.52      59.89       -0.66       
C           109.64      59.42       -1.71       
C           112.3       61.07       0.36        
C           111.56      60.12       1.36        
C           110.43      59.56       0.76        
C           109.42      59.18       -4.3        
C           110.18      60.01       -5.33       
C           111.29      60.67       -4.7        
C           111.74      59.87       2.69        
C           110.82      59.11       3.4         
C           109.6       58.63       2.72        
C           109.44      58.82       1.37        
C           110.04      59.92       -6.72       
C           110.97      60.73       -7.43       
C           112.02      61.45       -6.75       
C           112.26      61.3        -5.39       
C           113.81      60.66       0.3         
C           112.17      62.55       0.82        
C           109.69      57.67       -4.62       
C           107.86      59.56       -4.32       
H           108.8       58.76       -1.5        
H           112.79      61.67       -2.46       
H           109.25      59.48       -7.21       
H           113.15      61.6        -4.86       
H           112.55      60.3        3.26        
H           108.62      58.46       0.71        
H           114.46      61.18       1.09        
H           114.23      61.03       -0.63       
H           113.9451    59.57917    0.25947     
H           111.19      62.69       1.16        
H           112.8       62.79       1.68        
H           112.50129   63.32536    0.12923     
H           107.46      59.22       -3.36       
H           107.32      59.06       -5.16       
H           107.7542    60.61801    -4.55982    
H           109.21      56.93       -3.95       
H           109.25      57.48       -5.53       
H           110.73583   57.37119    -4.69114    
H           111.59      59.0        5.45        
H           110.48      60.54       -9.55       
S           108.71      57.56       3.83        
C           110.81      58.72       4.78        
C           109.83      57.93       5.15        
C           113.96      61.83       -13.45      
C           114.55      62.58       -12.41      
C           112.79      61.22       -13.06      
N           115.66      63.25       -12.45      
N           114.68      63.44       -10.27      
S           115.85      64.12       -11.12      
H           111.35      60.56       -11.61      
H           112.37      60.58       -13.77      
C           112.23      61.2        -11.74      
C           113.9       62.68       -11.06      
C           112.73      61.9        -10.69      
C           119.38      52.29       -26.03      
C           118.27      53.09       -26.2       
S           120.07      52.38       -24.42      
C           116.07      56.64       -21.78      
C           117.31      56.04       -21.55      
C           118.08      56.41       -20.49      
C           117.73      57.44       -19.65      
C           116.5       58.08       -19.82      
C           115.67      57.62       -20.86      
C           118.52      58.04       -18.51      
C           117.43      58.92       -17.78      
C           116.3       58.95       -18.63      
C           115.71      56.46       -23.26      
C           116.63      55.32       -23.61      
C           117.57      55.11       -22.6       
C           117.38      59.62       -16.58      
C           116.16      60.19       -16.11      
C           115.12      60.31       -17.03      
C           115.21      59.73       -18.29      
C           116.75      54.64       -24.81      
C           117.87      53.85       -25.02      
C           118.82      53.54       -23.99      
C           118.64      54.18       -22.73      
C           119.02      56.94       -17.59      
C           119.61      59.02       -18.97      
C           114.32      55.87       -23.54      
C           115.95      57.72       -24.17      
H           114.68      58.13       -20.96      
H           119.07      55.91       -20.27      
H           116.08      54.87       -25.61      
H           119.48      54.2        -22.04      
H           118.22      59.74       -15.93      
H           114.3       59.72       -18.97      
H           119.75      56.4        -18.13      
H           119.48      57.42       -16.77      
H           118.22781   56.24683    -17.30707   
H           119.21      59.94       -19.37      
H           120.07      59.43       -18.04      
H           120.40326   58.52335    -19.52873   
H           115.11      58.32       -24.28      
H           116.26      57.56       -25.18      
H           116.83402   58.29034    -23.88483   
H           113.54      56.61       -23.36      
H           114.21      55.7        -24.56      
H           114.12356   54.979      -22.94366   
H           116.57      60.6        -13.92      
H           117.64      53.03       -27.05      
S           113.85      61.16       -16.2       
C           115.91      60.76       -14.78      
C           114.66      61.35       -14.64      
C           121.24      49.21       -28.58      
C           119.86      49.53       -28.75      
C           121.9       49.87       -27.62      
N           118.88      48.89       -29.46      
N           117.92      50.73       -28.18      
S           117.38      49.57       -29.19      
H           121.88      51.09       -25.86      
H           122.9       49.56       -27.4       
C           121.29      50.88       -26.79      
C           119.23      50.56       -27.92      
C           119.96      51.18       -26.84      
C           129.6       39.92       -39.68      
C           128.81      40.94       -40.07      
S           130.09      40.07       -38.01      
C           126.17      44.85       -36.13      
C           127.11      43.97       -35.55      
C           127.33      43.95       -34.19      
C           126.56      44.82       -33.42      
C           125.45      45.62       -33.99      
C           125.37      45.66       -35.4       
C           126.65      45.1        -31.97      
C           125.33      45.84       -31.71      
C           124.68      46.26       -32.89      
C           126.3       44.84       -37.68      
C           127.27      43.62       -37.85      
C           127.72      43.13       -36.6       
C           124.85      46.3        -30.54      
C           123.7       47.15       -30.46      
C           123.08      47.56       -31.67      
C           123.59      47.2        -32.92      
C           127.51      42.91       -39.06      
C           128.38      41.8        -38.96      
C           128.97      41.4        -37.75      
C           128.63      42.03       -36.52      
C           126.65      43.8        -31.13      
C           127.83      46.04       -31.57      
C           125.0       44.55       -38.41      
C           126.94      46.16       -38.24      
H           124.71      46.36       -35.82      
H           127.97      43.23       -33.7       
H           126.89      43.07       -39.95      
H           128.79      41.53       -35.57      
H           125.41      46.08       -29.64      
H           123.21      47.61       -33.82      
H           127.55      43.18       -31.35      
H           126.64      44.09       -30.09      
H           125.74805   43.23035    -31.35379   
H           127.97      46.91       -32.15      
H           127.61      46.43       -30.55      
H           128.79428   45.54698    -31.69325   
H           126.26      46.99       -38.08      
H           127.17      45.97       -39.27      
H           127.9164    46.39349    -37.81548   
H           125.08      44.93       -39.43      
H           124.4       45.24       -37.88      
H           124.65525   43.52983    -38.24114   
H           123.47      47.55       -28.27      
H           128.49      41.05       -41.07      
S           121.67      48.53       -31.25      
C           123.01      47.64       -29.27      
C           121.91      48.36       -29.52      
C           132.04      37.49       -42.55      
C           131.99      37.16       -41.19      
C           131.27      38.58       -42.85      
N           132.59      36.09       -40.68      
N           131.19      37.33       -39.01      
S           132.19      36.03       -39.09      
H           130.08      40.17       -42.33      
H           131.32      38.97       -43.88      
C           130.47      39.3        -41.94      
C           131.06      37.82       -40.25      
C           130.28      38.99       -40.6       
C           135.39      29.1        -56.43      
C           134.87      28.45       -55.35      
S           135.54      30.81       -56.11      
C           134.13      31.22       -50.0       
C           134.49      32.07       -51.09      
C           134.55      33.42       -51.01      
C           134.3       34.02       -49.78      
C           133.93      33.24       -48.64      
C           133.83      31.82       -48.78      
C           134.61      35.46       -49.44      
C           133.93      35.5        -48.03      
C           133.62      34.19       -47.57      
C           133.88      29.7        -50.47      
C           134.52      29.84       -51.88      
C           134.64      31.23       -52.26      
C           133.61      36.57       -47.22      
C           133.1       36.32       -45.89      
C           132.96      34.96       -45.43      
C           133.16      33.91       -46.27      
C           134.48      28.88       -52.87      
C           134.73      29.29       -54.17      
C           135.13      30.59       -54.45      
C           134.98      31.64       -53.49      
C           136.13      35.67       -49.57      
C           133.73      36.39       -50.32      
C           134.65      28.68       -49.56      
C           132.34      29.43       -50.66      
H           133.45      31.28       -47.9       
H           134.68      34.08       -51.87      
H           134.13      27.85       -52.62      
H           135.23      32.71       -53.67      
H           133.75      37.6        -47.68      
H           133.07      32.89       -45.85      
H           136.37      35.83       -50.66      
H           136.6       34.71       -49.22      
H           136.49242   36.44954    -48.89987   
H           134.06      36.35       -51.33      
H           133.9       37.44       -50.04      
H           132.68122   36.09345    -50.30553   
H           132.27      28.58       -51.28      
H           132.0       30.38       -51.16      
H           131.73463   29.14555    -49.79935   
H           134.49      28.8        -48.48      
H           134.15      27.74       -49.88      
H           135.71166   28.71492    -49.80446   
H           132.94      38.24       -45.05      
H           134.74      27.37       -55.29      
S           132.31      34.96       -43.78      
C           132.89      37.25       -44.85      
C           132.46      36.71       -43.72      
C           135.27      28.21       -60.76      
C           134.76      27.24       -59.81      
C           136.05      29.18       -60.22      
N           134.08      26.2        -60.11      
N           134.35      26.47       -57.64      
S           133.9       25.37       -58.74      
H           136.58      30.37       -58.62      
H           136.72      29.81       -60.85      
C           136.09      29.43       -58.82      
C           134.83      27.44       -58.36      
C           135.52      28.64       -57.8       
C           134.89      29.91       -77.37      
C           134.68      30.92       -76.49      
S           135.08      28.36       -76.58      
C           134.55      30.03       -70.37      
C           134.67      28.84       -71.15      
C           134.85      27.63       -70.52      
C           134.99      27.49       -69.14      
C           134.91      28.69       -68.38      
C           134.75      29.93       -69.01      
C           135.1       26.36       -68.12      
C           134.93      27.02       -66.78      
C           135.03      28.4        -66.98      
C           134.43      31.27       -71.32      
C           134.29      30.65       -72.72      
C           134.58      29.27       -72.63      
C           135.12      26.5        -65.51      
C           135.2       27.42       -64.41      
C           135.24      28.79       -64.66      
C           135.06      29.25       -65.91      
C           134.19      31.24       -73.95      
C           134.51      30.51       -75.12      
C           134.78      29.1        -75.01      
C           134.73      28.41       -73.75      
C           134.18      25.09       -68.21      
C           136.64      25.97       -68.2       
C           133.17      32.06       -70.78      
C           135.82      31.98       -71.11      
H           134.75      30.83       -68.36      
H           135.04      26.74       -71.16      
H           134.01      32.32       -74.03      
H           134.98      27.4        -73.68      
H           135.15      25.44       -65.22      
H           135.05      30.32       -66.1       
H           134.2       24.67       -69.22      
H           134.62      24.35       -67.56      
H           133.20617   25.38489    -67.8191    
H           137.38      26.8        -68.08      
H           136.81      25.29       -67.34      
H           136.90771   25.3188     -69.03209   
H           135.69      32.57       -70.25      
H           136.69      31.29       -71.16      
H           136.0601    32.70031    -71.89205   
H           133.48      32.99       -70.37      
H           132.7       31.6        -69.97      
H           132.41007   32.26989    -71.5327    
H           134.94      26.11       -62.69      
H           134.49      31.93       -76.79      
S           135.29      29.63       -63.12      
C           135.17      27.09       -63.03      
C           135.33      28.17       -62.19      
C           134.23      29.64       -81.75      
C           133.68      30.66       -80.93      
C           135.03      28.82       -81.07      
N           132.77      31.61       -81.39      
N           133.19      31.75       -78.97      
S           132.28      32.45       -80.14      
H           135.91      28.09       -79.21      
H           135.62      28.14       -81.67      
C           135.31      28.92       -79.62      
C           133.95      30.84       -79.54      
C           134.68      29.88       -78.81      
H           88.77       -3.43       74.07       
H           133.95      29.48       -82.77      
