612

C           91.51       63.78       101.22      
C           92.64       63.66       100.42      
S           91.84       65.07       102.39      
C           97.96       66.48       101.59      
C           96.94       66.75       102.51      
C           97.15       67.5        103.69      
C           98.44       67.91       103.89      
C           99.48       67.72       102.96      
C           99.24       67.01       101.73      
C           98.99       68.32       105.27      
C           100.39      68.76       104.86      
C           100.75      68.38       103.53      
C           97.45       65.56       100.49      
C           96.11       65.21       101.03      
C           95.8        66.05       102.06      
C           101.36      69.3        105.7       
C           102.63      69.54       105.22      
C           102.95      69.25       103.86      
C           102.06      68.53       103.07      
C           95.14       64.4        100.4       
C           93.81       64.43       100.92      
C           93.54       65.31       101.96      
C           94.48       66.06       102.54      
C           98.22       69.55       105.76      
C           99.09       67.3        106.38      
C           97.24       66.41       99.22       
C           98.23       64.26       100.29      
H           100.0       66.73       101.06      
H           96.36       67.6        104.45      
H           95.43       63.59       99.74       
H           94.19       66.62       103.41      
H           101.05      69.43       106.71      
H           102.4       68.05       102.14      
H           97.21       69.27       105.91      
H           98.55       69.97       106.67      
H           98.269      70.31997    104.99003   
H           99.87       66.58       106.13      
H           99.26       67.76       107.35      
H           98.25582    66.61428    106.52845   
H           99.25       64.35       99.86       
H           97.71       63.61       99.57       
H           98.34672    63.67639    101.20317   
H           98.16       66.87       99.01       
H           97.08       65.74       98.37       
H           96.43907    67.1477     99.26918    
H           103.61      70.65       106.84      
H           92.7        63.03       99.57       
S           104.53      69.67       103.44      
C           103.71      70.22       105.84      
C           104.78      70.38       105.03      
C           87.52       61.94       100.48      
C           87.71       62.8        101.65      
C           88.63       61.72       99.74       
N           86.82       63.0        102.62      
N           88.96       64.1        103.05      
S           87.48       63.97       103.75      
H           90.71       62.27       99.26       
H           88.55       60.97       99.0        
C           89.87       62.41       99.99       
C           89.0        63.43       101.91      
C           90.11       63.3        101.0       
C           75.59       51.55       95.42       
C           76.64       51.98       94.7        
S           75.73       52.25       97.04       
C           80.87       55.8        96.69       
C           79.96       55.36       97.64       
C           79.98       55.99       98.96       
C           80.9        56.96       99.24       
C           81.9        57.28       98.26       
C           81.88       56.73       97.02       
C           81.01       57.93       100.43      
C           82.34       58.61       100.13      
C           82.83       58.22       98.84       
C           80.49       55.34       95.26       
C           79.32       54.48       95.58       
C           78.99       54.55       96.97       
C           83.04       59.56       100.86      
C           84.33       59.98       100.42      
C           84.75       59.57       99.19       
C           84.0        58.73       98.3        
C           78.56       53.67       94.73       
C           77.54       52.92       95.3        
C           77.15       53.19       96.61       
C           77.88       53.97       97.48       
C           79.78       58.89       100.42      
C           81.17       57.32       101.82      
C           80.04       56.56       94.46       
C           81.63       54.67       94.49       
H           82.7        57.0        96.26       
H           79.15       55.99       99.66       
H           78.8        53.62       93.69       
H           77.63       53.97       98.52       
H           82.68       59.88       101.83      
H           84.41       58.58       97.29       
H           79.22       58.96       101.33      
H           79.08       58.36       99.8        
H           79.98537    59.84604    99.93844    
H           80.27       56.93       102.32      
H           81.57       58.1        102.44      
H           81.89321    56.50461    101.83418   
H           82.05       55.47       93.79       
H           81.25       53.81       93.9        
H           82.31087    54.22077    95.21298    
H           80.88       57.29       94.49       
H           79.87       56.25       93.43       
H           79.14132    57.02731    94.86261    
H           85.0        61.35       102.02      
H           76.84       51.76       93.66       
S           86.14       60.37       98.68       
C           85.18       60.86       101.06      
C           86.32       61.15       100.26      
C           71.93       49.24       94.46       
C           72.82       49.63       93.39       
C           72.3        49.74       95.66       
N           72.64       49.36       92.11       
N           74.8        50.51       92.61       
S           73.97       49.86       91.3        
H           73.64       50.75       97.02       
H           71.6        49.63       96.46       
C           73.52       50.48       95.96       
C           74.1        50.29       93.73       
C           74.47       50.71       95.04       
C           60.43       40.51       87.02       
C           61.72       40.17       86.97       
S           60.0        41.51       88.36       
C           65.77       42.26       90.99       
C           64.42       42.65       91.33       
C           64.13       43.75       92.15       
C           65.23       44.36       92.73       
C           66.5        43.9        92.47       
C           66.84       42.79       91.72       
C           65.16       45.7        93.43       
C           66.67       46.06       93.44       
C           67.46       44.97       92.97       
C           65.84       41.37       89.76       
C           64.37       41.23       89.42       
C           63.57       41.95       90.31       
C           67.34       47.18       94.0        
C           68.72       47.37       93.92       
C           69.47       46.22       93.59       
C           68.88       45.09       92.97       
C           63.9        40.6        88.3        
C           62.51       40.71       88.04       
C           61.7        41.49       88.88       
C           62.2        42.05       90.02       
C           64.29       46.77       92.73       
C           64.73       45.65       94.9        
C           66.43       42.14       88.58       
C           66.55       40.05       90.08       
H           67.89       42.56       91.43       
H           63.1        44.1        92.32       
H           64.53       39.91       87.72       
H           61.56       42.6        90.72       
H           66.8        48.06       94.37       
H           69.48       44.42       92.43       
H           64.09       47.63       93.39       
H           63.32       46.34       92.47       
H           64.71183    47.13463    91.79341    
H           65.52       45.04       95.35       
H           64.65       46.59       95.4        
H           63.7317     45.24628    95.06883    
H           67.46       40.11       90.7        
H           66.76       39.59       89.08       
H           65.9238     39.34726    90.62967    
H           67.56       42.13       88.65       
H           66.21       41.65       87.62       
H           66.15344    43.19391    88.5501     
H           69.06       49.46       94.64       
H           62.13       39.43       86.33       
S           71.25       46.63       93.63       
C           69.51       48.49       94.35       
C           70.83       48.32       94.06       
C           57.25       39.42       84.15       
C           58.23       38.44       84.49       
C           57.42       40.66       84.75       
N           58.37       37.16       84.04       
N           60.06       37.81       85.86       
S           59.47       36.43       85.09       
H           58.42       42.04       85.93       
H           56.8        41.47       84.45       
C           58.47       41.03       85.57       
C           59.26       38.82       85.49       
C           59.36       40.13       86.04       
C           42.97       35.63       78.96       
C           43.14       36.94       79.15       
S           44.46       34.85       78.42       
C           48.73       39.44       79.23       
C           48.61       38.14       78.81       
C           49.68       37.3        78.63       
C           50.88       37.78       79.02       
C           51.02       39.0        79.69       
C           49.95       39.94       79.72       
C           52.0        36.77       79.36       
C           52.94       37.67       80.11       
C           52.36       39.01       80.25       
C           47.32       40.12       79.33       
C           46.39       38.86       79.18       
C           47.18       37.8        78.69       
C           54.15       37.32       80.75       
C           54.81       38.27       81.5        
C           54.25       39.63       81.58       
C           52.98       40.01       80.99       
C           45.12       38.68       79.37       
C           44.47       37.43       79.04       
C           45.31       36.35       78.69       
C           46.76       36.54       78.49       
C           51.55       35.53       80.11       
C           52.82       36.42       78.1        
C           47.03       40.71       80.71       
C           47.02       41.11       78.17       
H           49.96       40.82       80.27       
H           49.55       36.22       78.46       
H           44.48       39.41       79.86       
H           47.42       35.67       78.27       
H           54.59       36.37       80.72       
H           52.61       41.05       81.2        
H           50.87       34.96       79.52       
H           52.36       34.8        80.31       
H           51.08033    35.66814    81.08387    
H           53.17       37.4        77.69       
H           53.69       35.78       78.29       
H           52.31197    35.92589    77.27184    
H           46.07       41.6        78.4        
H           46.79       40.61       77.26       
H           47.83654    41.8026     77.96587    
H           47.78       41.43       81.06       
H           46.08       41.23       80.7        
H           47.11391    40.0457     81.57009    
H           56.54       37.21       82.32       
H           42.31       37.59       79.45       
S           55.32       40.55       82.6        
C           56.01       38.09       82.29       
C           56.28       39.17       83.12       
C           39.11       33.52       79.39       
C           40.27       32.87       78.92       
C           39.4        34.84       79.76       
N           40.33       31.65       78.47       
N           42.59       32.68       78.34       
S           41.89       31.21       78.1        
H           40.66       36.45       79.9        
H           38.67       35.55       80.11       
C           40.63       35.44       79.63       
C           41.61       33.55       78.73       
C           41.75       34.89       79.1        
C           23.61       31.1        75.48       
C           24.13       32.19       76.12       
S           24.64       29.74       75.74       
C           29.49       32.14       78.92       
C           29.19       30.98       78.28       
C           30.08       29.95       78.08       
C           31.4        30.2        78.4        
C           31.75       31.4        79.15       
C           30.82       32.37       79.4        
C           32.72       29.47       77.95       
C           33.82       30.44       78.55       
C           33.16       31.55       79.15       
C           28.44       33.22       78.57       
C           27.31       32.36       78.1        
C           27.83       31.09       77.77       
C           35.19       30.37       78.4        
C           35.95       31.48       78.84       
C           35.33       32.57       79.52       
C           33.95       32.62       79.63       
C           26.04       32.8        77.61       
C           25.3        31.86       76.91       
C           25.81       30.55       76.65       
C           27.04       30.14       77.1        
C           32.71       28.06       78.58       
C           32.9        29.49       76.31       
C           27.96       34.02       79.75       
C           28.87       34.13       77.34       
H           31.07       33.32       79.75       
H           29.84       29.11       77.5        
H           25.63       33.82       77.8        
H           27.41       29.17       76.8        
H           35.62       29.6        77.78       
H           33.48       33.47       80.17       
H           33.45       27.29       78.23       
H           31.76       27.58       78.35       
H           32.79465    28.08822    79.66634    
H           32.83       30.53       75.97       
H           33.97       29.18       76.19       
H           32.15481    29.02425    75.66512    
H           28.14       34.99       77.25       
H           28.81       33.65       76.33       
H           29.87718    34.54109    77.40852    
H           28.66       34.7        80.19       
H           27.1        34.71       79.59       
H           27.67091    33.37677    80.58114    
H           37.94       31.12       78.09       
H           23.81       33.23       76.01       
S           36.43       33.82       80.03       
C           37.34       31.77       78.73       
C           37.77       32.91       79.31       
C           21.24       30.61       71.83       
C           21.8        31.9        72.16       
C           21.36       29.72       72.86       
N           21.74       33.0        71.35       
N           22.7        33.46       73.64       
S           22.43       34.2        72.14       
H           22.3        29.22       74.72       
H           21.08       28.7        72.64       
C           22.1        30.0        74.04       
C           22.45       32.15       73.44       
C           22.7        31.14       74.35       
C           20.03       23.35       56.95       
C           19.77       22.74       58.14       
S           20.56       24.97       57.28       
C           19.84       25.6        63.49       
C           20.48       26.2        62.46       
C           21.11       27.45       62.63       
C           21.2        27.89       63.95       
C           20.47       27.3        64.96       
C           19.76       26.13       64.76       
C           21.99       29.1        64.44       
C           21.61       29.06       65.98       
C           20.69       27.98       66.19       
C           19.52       24.12       63.1        
C           20.04       24.11       61.63       
C           20.36       25.44       61.26       
C           22.02       29.93       66.95       
C           21.46       29.82       68.27       
C           20.59       28.71       68.49       
C           20.16       27.83       67.43       
C           19.86       23.1        60.69       
C           20.09       23.48       59.35       
C           20.58       24.77       59.04       
C           20.72       25.8        59.99       
C           23.57       28.86       64.42       
C           21.56       30.47       63.8        
C           20.32       22.98       63.89       
C           18.0        23.91       63.14       
H           19.27       25.62       65.53       
H           21.71       27.99       61.86       
H           19.52       22.13       60.95       
H           21.12       26.77       59.72       
H           22.71       30.73       66.74       
H           19.44       27.04       67.64       
H           23.84       28.73       63.35       
H           24.07       29.65       64.89       
H           23.84088    27.97607    64.9974     
H           20.49       30.73       63.94       
H           22.11       31.21       64.35       
H           21.88522    30.67959    62.78098    
H           17.71       22.86       63.02       
H           17.63       24.46       62.25       
H           17.4993     24.20327    64.06271    
H           20.05       22.88       64.94       
H           20.12       22.03       63.39       
H           21.39611    23.15333    63.89722    
H           22.4        31.44       69.35       
H           19.44       21.73       58.14       
S           20.15       28.71       70.16       
C           21.7        30.63       69.41       
C           21.03       30.17       70.51       
C           18.79       22.95       52.81       
C           18.29       21.95       53.75       
C           19.75       23.88       53.22       
N           17.57       20.83       53.5        
N           18.44       20.99       55.87       
S           17.37       20.02       54.95       
H           21.03       24.64       54.72       
H           20.25       24.51       52.47       
C           20.19       23.89       54.56       
C           18.85       22.0        55.1        
C           19.68       23.06       55.57       
C           12.4        26.96       38.18       
C           12.46       27.92       39.2        
S           12.41       25.3        38.83       
C           14.82       26.31       44.46       
C           14.33       25.19       43.71       
C           14.65       23.82       43.97       
C           15.47       23.56       45.09       
C           15.93       24.63       45.93       
C           15.75       25.99       45.52       
C           15.75       22.24       45.75       
C           16.47       22.69       47.02       
C           16.6        24.09       47.0        
C           14.17       27.62       44.04       
C           13.5        27.2        42.76       
C           13.6        25.76       42.56       
C           16.84       22.02       48.13       
C           17.44       22.67       49.25       
C           17.57       24.09       49.17       
C           17.22       24.78       48.03       
C           12.91       27.97       41.73       
C           12.71       27.37       40.49       
C           12.81       25.88       40.41       
C           13.21       25.1        41.47       
C           14.54       21.4        46.06       
C           16.77       21.36       45.01       
C           13.14       28.03       45.08       
C           15.19       28.71       43.79       
H           16.16       26.85       46.06       
H           14.41       22.96       43.37       
H           12.76       29.03       41.95       
H           13.45       24.09       41.27       
H           16.69       20.94       48.22       
H           17.24       25.86       47.97       
H           14.82       20.41       46.53       
H           14.1        21.14       45.11       
H           13.72879    21.95277    46.5338     
H           16.2        20.79       44.26       
H           17.22       20.67       45.72       
H           17.55657    21.94992    44.53947    
H           15.58       29.17       44.68       
H           14.74       29.53       43.22       
H           15.97026    28.40347    43.09334    
H           13.62       27.76       46.03       
H           13.03       29.08       45.11       
H           12.12386    27.63568    45.07242    
H           17.74       21.11       50.89       
H           12.42       29.01       39.11       
S           18.24       24.71       50.67       
C           17.74       22.18       50.59       
C           18.27       23.13       51.44       
C           12.8        27.12       33.83       
C           12.85       28.3        34.55       
C           12.56       25.99       34.48       
N           13.01       29.45       34.05       
N           12.79       29.57       36.47       
S           13.16       30.58       35.25       
H           12.37       24.9        36.3        
H           12.26       25.08       34.0        
C           12.56       25.99       35.96       
C           12.69       28.34       35.97       
C           12.55       27.12       36.75       
C           20.54       28.2        20.09       
C           20.58       27.1        20.9        
S           19.05       29.09       20.43       
C           16.21       25.64       24.91       
C           16.01       26.83       24.21       
C           14.95       27.75       24.49       
C           14.24       27.5        25.66       
C           14.54       26.37       26.42       
C           15.35       25.35       25.93       
C           13.4        28.55       26.42       
C           13.14       27.71       27.68       
C           13.88       26.49       27.71       
C           17.35       24.81       24.33       
C           18.03       25.88       23.44       
C           17.16       27.0        23.25       
C           12.48       28.13       28.8        
C           12.72       27.49       30.07       
C           13.52       26.34       30.0        
C           14.01       25.77       28.87       
C           19.13       25.85       22.64       
C           19.46       26.95       21.79       
C           18.52       27.99       21.7        
C           17.32       28.04       22.36       
C           14.25       29.82       26.73       
C           12.05       28.93       25.86       
C           18.32       24.45       25.45       
C           16.76       23.71       23.4        
H           15.56       24.46       26.64       
H           14.9        28.71       24.01       
H           19.79       25.0        22.58       
H           16.59       28.85       22.19       
H           11.94       29.11       28.78       
H           14.63       24.88       28.93       
H           14.46       30.32       25.81       
H           13.56       30.45       27.34       
H           15.14831    29.62902    27.31708    
H           11.5        28.01       25.75       
H           11.52       29.58       26.53       
H           12.01427    29.28734    24.83086    
H           17.33       23.55       22.48       
H           15.83       24.11       23.0        
H           16.69387    22.7254     23.86291    
H           19.29       24.15       25.0        
H           17.89       23.61       26.0        
H           18.54145    25.30723    26.08578    
H           12.08       28.85       31.67       
H           21.38       26.39       20.85       
S           13.77       25.65       31.55       
C           12.57       27.95       31.45       
C           12.9        27.02       32.35       
C           22.96       29.46       16.65       
C           23.62       28.88       17.8        
C           21.64       29.68       16.74       
N           24.99       28.77       17.98       
N           23.57       27.91       19.89       
S           25.15       27.91       19.42       
H           19.86       29.48       17.82       
H           21.07       30.26       15.96       
C           20.95       29.35       17.91       
C           22.81       28.42       18.89       
C           21.42       28.69       19.01       
C           28.64       40.89       7.12        
C           29.45       40.24       7.99        
S           27.25       39.91       6.59        
C           27.86       35.18       10.64       
C           27.16       35.4        9.43        
C           25.97       34.71       9.08        
C           25.61       33.62       9.89        
C           26.35       33.47       11.1        
C           27.52       34.13       11.5        
C           24.26       32.88       9.96        
C           24.52       32.03       11.24       
C           25.77       32.34       11.86       
C           29.07       36.09       10.95       
C           28.94       36.85       9.58        
C           27.69       36.64       8.92        
C           23.61       31.37       12.02       
C           23.86       30.92       13.34       
C           25.19       31.03       13.78       
C           26.17       31.73       13.1        
C           29.57       38.04       9.21        
C           29.02       38.94       8.25        
C           27.83       38.61       7.64        
C           27.13       37.49       7.97        
C           23.06       33.89       10.09       
C           24.02       32.01       8.72        
C           28.89       37.09       12.15       
C           30.37       35.24       11.06       
H           28.01       34.02       12.47       
H           25.44       34.93       8.14        
H           30.44       38.44       9.74        
H           26.13       37.38       7.64        
H           22.56       31.4        11.75       
H           27.14       31.94       13.49       
H           22.13       33.42       10.01       
H           23.11       34.51       9.21        
H           23.14003    34.53689    10.96363    
H           23.43       32.66       8.03        
H           23.39       31.13       9.01        
H           24.9803     31.64177    8.35899     
H           30.37       34.6        11.93       
H           30.22       34.53       10.27       
H           31.31715    35.75729    10.907      
H           29.69       37.82       12.27       
H           29.03       36.49       13.02       
H           27.8997     37.54271    12.19952    
H           22.11       29.91       14.03       
H           30.34       40.6        8.39        
S           25.33       30.48       15.44       
C           23.08       30.22       14.27       
C           23.73       29.84       15.39       
C           28.54       45.14       5.87        
C           29.75       44.47       6.16        
C           27.47       44.29       5.78        
N           30.94       45.02       6.23        
N           31.01       42.68       7.07        
S           31.97       44.01       7.03        
H           26.52       42.44       6.39        
H           26.52       44.74       5.57        
C           27.46       42.92       6.29        
C           29.83       43.03       6.6         
C           28.62       42.26       6.62        
C           28.68       60.98       0.92        
C           27.72       60.51       1.78        
S           29.58       59.66       0.28        
C           27.67       54.72       3.68        
C           28.59       55.04       2.66        
C           29.48       54.08       2.19        
C           29.4        52.79       2.74        
C           28.42       52.47       3.76        
C           27.58       53.45       4.23        
C           30.38       51.6        2.59        
C           29.72       50.57       3.41        
C           28.53       51.03       3.98        
C           26.9        55.95       4.01        
C           27.3        56.98       3.01        
C           28.42       56.42       2.21        
C           30.01       49.26       3.38        
C           29.18       48.42       4.18        
C           28.06       48.9        4.86        
C           27.71       50.27       4.7         
C           26.99       58.29       2.92        
C           27.79       59.11       2.11        
C           28.76       58.53       1.3         
C           29.13       57.18       1.29        
C           30.5        51.19       1.14        
C           31.77       51.72       3.27        
C           25.4        55.56       3.89        
C           27.19       56.44       5.49        
H           26.78       53.27       5.02        
H           30.29       54.36       1.51        
H           26.11       58.69       3.32        
H           29.97       56.73       0.77        
H           30.81       48.77       2.9         
H           26.77       50.71       5.03        
H           30.75       52.03       0.45        
H           31.28       50.41       1.03        
H           29.56475    50.71886    0.83763     
H           31.58       51.18       4.21        
H           32.62       51.09       2.92        
H           32.08315    52.74296    3.47877     
H           26.42       56.08       6.25        
H           27.31       57.57       5.6         
H           28.19683    56.15531    5.79552     
H           25.16       54.68       4.52        
H           25.27       55.24       2.87        
H           24.67365    56.34277    4.10861     
H           30.51       46.65       4.38        
H           27.01       61.16       2.22        
S           27.34       47.67       5.88        
C           29.52       47.13       4.62        
C           28.56       46.52       5.37        
C           29.91       65.12       -0.14       
C           28.65       64.79       0.38        
C           30.72       63.97       -0.27       
N           27.69       65.65       0.7         
N           27.18       63.46       1.49        
S           26.48       64.9        1.53        
H           30.96       61.81       -0.12       
H           31.69       64.11       -0.58       
C           30.33       62.62       0.05        
C           28.27       63.44       0.79        
C           29.08       62.35       0.56        
H           105.77      70.55       105.41      
H           30.11       66.08       -0.58       
