612

C           38.93       61.95       78.4        
C           39.09       62.76       77.31       
S           40.49       61.32       78.98       
C           44.57       64.36       75.28       
C           44.59       63.52       76.43       
C           45.81       63.08       77.04       
C           46.99       63.42       76.39       
C           46.95       64.34       75.33       
C           45.76       64.83       74.77       
C           48.4        62.98       76.77       
C           49.23       63.88       75.95       
C           48.36       64.58       75.0        
C           43.24       64.56       74.67       
C           42.43       63.87       75.78       
C           43.25       63.16       76.69       
C           50.64       64.07       75.93       
C           51.17       65.04       74.99       
C           50.26       65.63       74.08       
C           48.89       65.44       74.07       
C           41.07       63.74       75.91       
C           40.52       62.98       76.96       
C           41.38       62.21       77.77       
C           42.74       62.35       77.7        
C           48.7        63.25       78.27       
C           48.82       61.54       76.4        
C           42.83       66.04       74.4        
C           43.31       63.89       73.28       
H           45.78       65.5        73.91       
H           45.69       62.5        77.96       
H           40.41       64.32       75.28       
H           43.49       61.85       78.34       
H           51.32       63.56       76.71       
H           48.23       66.08       73.45       
H           48.0        62.72       78.88       
H           49.67       62.92       78.52       
H           48.59954    64.3192     78.45657    
H           48.98       61.52       75.36       
H           49.68       61.21       76.93       
H           48.05323    60.77323    76.51053    
H           44.16       63.3        73.29       
H           43.22       64.7        72.52       
H           42.47953    63.1944     73.15933    
H           43.52       66.53       73.82       
H           41.82       65.99       73.93       
H           42.72584    66.60943    75.32358    
H           53.38       65.14       75.26       
H           38.27       63.08       76.75       
S           51.1        66.63       72.97       
C           52.46       65.47       74.72       
C           52.64       66.36       73.72       
C           35.28       60.82       80.54       
C           35.18       61.4        79.25       
C           36.54       60.58       80.89       
N           34.02       61.78       78.57       
N           36.09       62.42       77.37       
S           34.47       62.47       77.18       
H           38.68       60.58       80.58       
H           36.76       60.2        81.9        
C           37.69       60.84       80.13       
C           36.33       61.72       78.5        
C           37.68       61.5        78.94       
C           24.44       61.27       93.06       
C           25.75       61.4        93.1        
S           23.92       60.83       91.43       
C           29.62       60.95       88.44       
C           28.3        60.66       88.16       
C           27.94       60.41       86.85       
C           28.98       60.17       85.92       
C           30.28       60.65       86.22       
C           30.59       61.08       87.46       
C           28.87       59.62       84.48       
C           30.24       60.04       83.93       
C           31.01       60.65       84.95       
C           29.74       61.42       89.86       
C           28.35       61.1        90.42       
C           27.44       60.82       89.33       
C           30.67       59.94       82.6        
C           32.04       60.4        82.39       
C           32.81       60.85       83.52       
C           32.32       61.06       84.74       
C           27.86       61.27       91.68       
C           26.45       61.18       91.88       
C           25.59       60.77       90.8        
C           26.09       60.6        89.5        
C           28.68       58.09       84.55       
C           27.83       60.32       83.54       
C           30.85       60.58       90.6        
C           30.06       62.9        90.02       
H           31.58       61.37       87.71       
H           26.91       60.21       86.57       
H           28.54       61.46       92.5        
H           25.44       60.34       88.73       
H           30.03       59.55       81.76       
H           33.01       61.26       85.55       
H           27.71       57.93       85.02       
H           28.81       57.62       83.6        
H           29.40473    57.62359    85.21733    
H           27.98       61.39       83.52       
H           27.97       59.92       82.54       
H           26.76973    60.30557    83.79244    
H           31.13       63.14       89.94       
H           29.76       63.08       91.09       
H           29.49668    63.54485    89.3455     
H           31.81       60.63       90.09       
H           30.99       61.02       91.54       
H           30.61455    59.51691    90.64994    
H           32.41       60.45       80.19       
H           26.27       61.98       93.8        
S           34.55       60.95       83.14       
C           32.84       60.52       81.22       
C           34.23       60.57       81.46       
C           21.19       62.3        95.89       
C           22.54       62.72       96.12       
C           21.02       61.43       94.82       
N           22.9        63.56       97.11       
N           24.83       62.94       95.49       
S           24.51       63.86       96.82       
H           21.83       60.6        93.05       
H           20.0        61.0        94.58       
C           22.13       61.08       93.93       
C           23.64       62.38       95.22       
C           23.38       61.62       94.01       
C           7.86        69.3        103.06      
C           7.71        68.36       102.03      
S           9.58        69.79       103.29      
C           12.52       65.47       99.78       
C           12.88       66.55       100.66      
C           14.23       66.7        101.09      
C           15.15       65.91       100.49      
C           14.8        64.89       99.59       
C           13.46       64.73       99.16       
C           16.6        65.73       100.95      
C           17.1        64.79       99.79       
C           16.02       64.29       99.04       
C           10.97       65.24       99.68       
C           10.5        66.48       100.43      
C           11.63       67.16       101.05      
C           18.36       64.43       99.53       
C           18.61       63.81       98.27       
C           17.56       63.19       97.59       
C           16.2        63.4        98.0        
C           9.22        66.86       100.67      
C           8.96        67.88       101.6       
C           10.11       68.52       102.15      
C           11.44       68.19       101.94      
C           17.24       67.14       100.98      
C           16.55       65.12       102.36      
C           10.43       65.32       98.23       
C           10.5        63.98       100.53      
H           13.19       63.99       98.46       
H           14.48       67.46       101.84      
H           8.36        66.36       100.22      
H           12.28       68.79       102.36      
H           19.17       64.85       100.04      
H           15.35       62.96       97.43       
H           16.8        67.68       101.77      
H           16.96       67.65       100.09      
H           18.32769    67.17442    101.04196   
H           15.95       65.75       102.99      
H           17.54       65.02       102.74      
H           16.00681    64.18176    102.47287   
H           10.29       63.2        99.82       
H           9.53        64.16       101.09      
H           11.22754    63.55619    101.22222   
H           11.03       64.63       97.58       
H           9.48        64.78       98.22       
H           10.42254    66.32679    97.81237    
H           20.79       64.02       98.13       
H           6.79        67.98       101.65      
S           18.33       62.3        96.19       
C           19.92       63.67       97.66       
C           20.0        62.73       96.62       
C           5.03        71.43       105.76      
C           4.79        70.1        105.31      
C           6.19        71.95       105.34      
N           3.75        69.39       105.76      
N           5.1         68.21       104.16      
S           3.6         68.02       104.88      
H           7.89        71.87       104.13      
H           6.45        73.02       105.52      
C           7.09        71.19       104.46      
C           5.68        69.35       104.47      
C           6.85        69.91       103.96      
C           0.35        79.47       119.06      
C           1.63        79.16       118.6       
S           -0.85       78.67       118.11      
C           2.44        76.97       113.15      
C           1.2         76.64       113.64      
C           0.26        75.92       112.93      
C           0.62        75.4        111.69      
C           1.9         75.71       111.21      
C           2.81        76.58       111.88      
C           0.07        74.23       110.88      
C           1.19        73.97       109.85      
C           2.21        74.95       110.04      
C           3.47        77.31       114.21      
C           2.48        77.58       115.37      
C           1.16        77.14       115.0       
C           1.42        72.9        109.0       
C           2.63        72.89       108.28      
C           3.57        73.88       108.47      
C           3.41        74.97       109.32      
C           2.77        78.04       116.55      
C           1.65        78.39       117.37      
C           0.36        77.98       117.0       
C           0.12        77.15       115.96      
C           -0.27       72.92       111.62      
C           -1.07       74.77       110.11      
C           4.62        76.24       114.49      
C           3.94        78.7        113.79      
H           3.78        76.63       111.55      
H           -0.71       75.62       113.4       
H           3.76        78.34       116.82      
H           -0.9        76.89       115.66      
H           0.63        72.13       108.77      
H           4.11        75.77       109.32      
H           -1.12       73.12       112.36      
H           -0.53       72.06       110.98      
H           0.54652     72.50445    112.21052   
H           -0.75       75.53       109.45      
H           -1.4        73.98       109.41      
H           -1.95445    75.01121    110.69963   
H           3.19        79.4        113.74      
H           4.16        78.61       112.77      
H           4.76912     79.20033    114.29033   
H           5.14        76.01       113.58      
H           5.29        76.59       115.23      
H           4.15801     75.32336    114.85666   
H           2.46        71.14       106.93      
H           2.49        79.54       119.1       
S           4.82        73.76       107.24      
C           3.05        71.98       107.2       
C           4.2         72.22       106.64      
C           -1.02       82.82       121.61      
C           0.37        82.69       121.25      
C           -1.74       81.72       121.29      
N           1.34        83.55       121.72      
N           2.16        81.58       120.36      
S           2.75        82.9        121.08      
H           -2.11       79.95       120.23      
H           -2.77       81.76       121.51      
C           -1.33       80.69       120.42      
C           0.87        81.57       120.47      
C           -0.05       80.58       120.0       
C           -8.1        91.21       133.85      
C           -8.94       90.7        132.9       
S           -6.51       91.5        133.15      
C           -6.51       88.05       127.83      
C           -5.69       88.96       128.5       
C           -4.3        89.05       128.28      
C           -3.8        88.42       127.12      
C           -4.65       87.51       126.43      
C           -5.99       87.3        126.78      
C           -2.45       88.61       126.4       
C           -2.65       87.56       125.27      
C           -3.85       86.9        125.37      
C           -7.85       87.92       128.5       
C           -7.78       89.13       129.51      
C           -6.42       89.56       129.61      
C           -1.71       87.25       124.29      
C           -1.94       86.03       123.56      
C           -3.15       85.39       123.79      
C           -4.2        85.89       124.52      
C           -8.66       89.52       130.56      
C           -8.19       90.26       131.7       
C           -6.86       90.56       131.7       
C           -5.98       90.25       130.7       
C           -2.3        89.99       125.75      
C           -1.12       88.26       127.09      
C           -9.05       88.05       127.49      
C           -7.86       86.64       129.4       
H           -6.63       86.62       126.25      
H           -3.68       89.74       128.76      
H           -9.7        89.16       130.63      
H           -4.96       90.57       130.61      
H           -0.74       87.67       124.29      
H           -5.12       85.31       124.64      
H           -2.07       90.77       126.44      
H           -1.46       89.95       125.03      
H           -3.19526    90.24783    125.1842    
H           -1.02       87.16       127.3       
H           -0.34       88.44       126.42      
H           -0.99539    88.80691    128.02459   
H           -7.85       85.83       128.75      
H           -7.01       86.69       130.01      
H           -8.68032    86.52877    130.10909   
H           -9.43       87.05       127.28      
H           -8.61       88.47       126.56      
H           -9.87685    88.66145    127.85131   
H           -0.18       85.49       122.2       
H           -9.96       90.36       133.06      
S           -3.3        83.83       122.94      
C           -1.13       85.17       122.62      
C           -1.65       83.99       122.23      
C           -8.54       92.15       138.15      
C           -9.54       92.45       137.13      
C           -7.52       91.4        137.53      
N           -10.72      93.0        137.46      
N           -10.59      92.34       135.11      
S           -11.73      92.82       136.19      
H           -6.41       90.64       135.77      
H           -6.61       91.14       138.09      
C           -7.37       91.14       136.13      
C           -9.44       92.05       135.77      
C           -8.29       91.56       135.23      
C           -7.41       92.78       154.4       
C           -6.28       92.52       153.75      
S           -8.33       93.92       153.53      
C           -5.89       93.24       147.74      
C           -6.86       94.04       148.37      
C           -7.94       94.67       147.62      
C           -8.01       94.4        146.28      
C           -7.1        93.58       145.65      
C           -6.01       93.08       146.33      
C           -9.18       94.72       145.34      
C           -8.82       94.03       144.02      
C           -7.55       93.49       144.21      
C           -4.78       92.84       148.71      
C           -5.61       93.02       149.97      
C           -6.81       93.82       149.8       
C           -9.42       94.07       142.82      
C           -8.81       93.32       141.76      
C           -7.54       92.67       142.0       
C           -6.93       92.78       143.18      
C           -5.29       92.6        151.3       
C           -6.22       92.89       152.34      
C           -7.37       93.66       152.07      
C           -7.76       94.14       150.83      
C           -10.46      94.15       145.92      
C           -9.41       96.24       145.09      
C           -4.51       91.3        148.59      
C           -3.55       93.76       148.56      
H           -5.34       92.42       145.81      
H           -8.72       95.23       148.13      
H           -4.44       92.02       151.49      
H           -8.66       94.67       150.54      
H           -10.3       94.64       142.66      
H           -5.88       92.37       143.33      
H           -11.39      94.4        145.43      
H           -10.56      94.55       146.9       
H           -10.32361   93.07325    146.0205    
H           -9.74       96.68       146.03      
H           -10.15      96.34       144.33      
H           -8.54301    96.74751    144.66708   
H           -2.7        93.36       148.03      
H           -3.25       94.03       149.58      
H           -3.75565    94.68895    148.02816   
H           -3.65       90.97       149.19      
H           -4.12       91.14       147.57      
H           -5.41368    90.75342    148.85965   
H           -10.21      93.64       140.05      
H           -5.52       91.92       154.21      
S           -6.96       92.07       140.46      
C           -9.26       93.15       140.44      
C           -8.44       92.5        139.6       
C           -8.09       91.4        158.56      
C           -9.15       91.31       157.56      
C           -7.01       92.05       158.1       
N           -10.39      90.79       157.69      
N           -9.95       91.62       155.32      
S           -11.13      90.97       156.22      
H           -5.85       93.14       156.59      
H           -6.28       92.21       158.8       
C           -6.81       92.58       156.75      
C           -8.96       91.82       156.13      
C           -7.71       92.35       155.76      
C           -3.77       79.4        168.92      
C           -3.03       80.47       168.55      
S           -5.42       79.79       168.59      
C           -5.12       85.33       165.56      
C           -6.08       84.25       165.64      
C           -7.31       84.43       165.13      
C           -7.67       85.53       164.39      
C           -6.66       86.53       164.11      
C           -5.4        86.4        164.7       
C           -9.0        86.02       163.67      
C           -8.52       87.27       162.93      
C           -7.16       87.56       163.26      
C           -3.9        85.14       166.4       
C           -4.13       83.67       166.77      
C           -5.5        83.27       166.55      
C           -9.25       88.09       162.06      
C           -8.57       89.13       161.41      
C           -7.22       89.4        161.8       
C           -6.57       88.67       162.71      
C           -3.23       82.82       167.41      
C           -3.7        81.59       167.95      
C           -5.08       81.32       167.8       
C           -6.02       82.12       167.09      
C           -9.44       84.79       162.76      
C           -10.13      86.41       164.68      
C           -2.83       85.18       165.38      
C           -3.6        86.1        167.51      
H           -4.71       87.18       164.65      
H           -8.06       83.69       165.38      
H           -2.22       83.08       167.53      
H           -7.07       81.86       166.95      
H           -10.21      87.82       161.75      
H           -5.57       88.94       162.92      
H           -9.31       83.91       163.39      
H           -10.46      84.84       162.38      
H           -8.81638    84.66953    161.87418   
H           -9.77       87.23       165.32      
H           -10.98      86.8        164.18      
H           -10.54572   85.5997     165.27891   
H           -3.31       87.06       167.06      
H           -2.9        85.6        168.2       
H           -4.45302    86.14935    168.18677   
H           -1.79       85.25       165.76      
H           -2.82       86.18       165.02      
H           -2.93903    84.49175    164.54183   
H           -10.06      89.91       159.97      
H           -1.96       80.49       168.73      
S           -6.6        90.53       160.64      
C           -9.08       90.03       160.4       
C           -8.11       90.8        159.84      
C           -2.67       75.46       170.32      
C           -1.7        76.34       169.79      
C           -3.85       76.06       170.53      
N           -0.44       75.99       169.54      
N           -1.07       78.18       168.55      
S           0.24        77.25       168.75      
H           -5.14       77.83       170.39      
H           -4.64       75.45       170.88      
C           -4.21       77.4        170.15      
C           -2.03       77.61       169.25      
C           -3.35       78.17       169.4       
C           -3.02       58.81       172.17      
C           -4.13       59.64       172.18      
S           -1.65       59.77       171.58      
C           -4.37       65.57       171.26      
C           -3.14       64.88       171.07      
C           -1.92       65.64       170.87      
C           -1.93       67.01       170.62      
C           -3.14       67.71       170.97      
C           -4.35       66.97       171.28      
C           -0.77       68.0        170.67      
C           -1.53       69.31       170.6       
C           -2.92       69.17       170.79      
C           -5.5        64.52       171.49      
C           -4.68       63.26       171.39      
C           -3.33       63.47       171.05      
C           -0.98       70.63       170.58      
C           -1.79       71.79       170.52      
C           -3.16       71.55       170.55      
C           -3.77       70.27       170.75      
C           -5.01       61.97       171.7       
C           -4.02       60.95       171.82      
C           -2.68       61.23       171.44      
C           -2.34       62.52       171.04      
C           0.09        67.84       171.99      
C           0.1         67.87       169.4       
C           -6.07       65.01       172.84      
C           -6.57       64.49       170.38      
H           -5.27       67.54       171.53      
H           -0.96       65.15       170.74      
H           -5.97       61.72       172.1       
H           -1.36       62.83       170.74      
H           0.09        70.76       170.5       
H           -4.82       70.2        170.84      
H           1.07        68.17       171.67      
H           0.25        66.77       172.18      
H           -0.2871     68.38075    172.85804   
H           0.56        66.84       169.36      
H           0.86        68.64       169.62      
H           -0.4465     68.00144    168.4661    
H           -7.66       64.74       170.62      
H           -6.52       63.46       169.96      
H           -6.34712    65.13706    169.53163   
H           -6.21       66.07       172.83      
H           -5.28       64.76       173.51      
H           -6.84762    64.35256    173.22881   
H           -0.48       73.62       170.29      
H           -5.18       59.22       172.46      
S           -4.05       73.07       170.71      
C           -1.48       73.21       170.43      
C           -2.57       73.99       170.53      
C           -2.43       54.58       173.18      
C           -3.59       55.3        173.65      
C           -1.51       55.4        172.6       
N           -4.55       54.77       174.39      
N           -4.98       57.11       173.79      
S           -5.72       55.9        174.56      
H           -1.03       57.23       171.76      
H           -0.57       54.96       172.29      
C           -1.8        56.77       172.24      
C           -3.82       56.69       173.35      
C           -2.91       57.44       172.58      
C           2.83        39.12       175.84      
C           3.54        40.02       175.14      
S           1.32        39.8        176.4       
C           2.01        45.94       175.06      
C           1.09        45.0        175.6       
C           -0.24       45.51       175.91      
C           -0.62       46.81       175.69      
C           0.28        47.72       175.14      
C           1.67        47.32       174.95      
C           -2.03       47.39       175.74      
C           -1.8        48.73       175.05      
C           -0.43       48.98       174.82      
C           3.26        45.17       174.66      
C           2.87        43.69       174.86      
C           1.61        43.63       175.47      
C           -2.69       49.69       174.78      
C           -2.27       50.89       174.14      
C           -0.9        51.13       173.93      
C           0.06        50.18       174.26      
C           3.64        42.54       174.77      
C           3.04        41.37       175.19      
C           1.73        41.38       175.81      
C           1.0         42.48       176.0       
C           -2.96       46.48       174.87      
C           -2.55       47.8        177.12      
C           3.56        45.53       173.16      
C           4.53        45.42       175.6       
H           2.38        47.98       174.42      
H           -0.94       44.79       176.26      
H           4.6         42.5        174.29      
H           0.09        42.42       176.47      
H           -3.71       49.51       175.04      
H           1.15        50.37       174.05      
H           -3.17       45.6        175.51      
H           -3.94       46.97       174.73      
H           -2.48395    46.24553    173.9179    
H           -2.23       48.85       177.49      
H           -3.59       47.98       176.95      
H           -2.23498    47.15531    177.94051   
H           5.44        44.77       175.38      
H           4.42        45.02       176.62      
H           4.79507     46.47294    175.69572   
H           4.44        45.12       172.79      
H           3.83        46.59       173.15      
H           2.6757      45.34753    172.54941   
H           -3.99       52.19       174.08      
H           4.41        39.75       174.55      
S           -0.5        52.68       173.16      
C           -3.0        52.09       173.78      
C           -2.16       53.12       173.3       
C           4.39        35.49       177.73      
C           4.63        35.75       176.36      
C           3.57        36.41       178.35      
N           5.5         34.99       175.67      
N           4.79        37.15       174.54      
S           5.78        35.82       174.26      
H           2.28        38.14       178.24      
H           3.39        36.37       179.51      
C           2.95        37.51       177.67      
C           4.19        36.97       175.7       
C           3.24        37.86       176.36      
C           12.29       28.08       190.14      
C           10.9        28.2        190.06      
S           13.02       28.53       188.6       
C           8.15        30.58       185.23      
C           9.62        30.55       185.14      
C           10.28       30.88       183.94      
C           9.49        31.53       183.01      
C           8.13        31.61       183.15      
C           7.42        31.06       184.19      
C           9.94        32.51       181.93      
C           8.65        32.84       181.27      
C           7.56        32.33       182.04      
C           7.65        30.25       186.68      
C           8.92        29.78       187.26      
C           10.0        29.98       186.41      
C           8.36        33.57       180.11      
C           7.03        33.71       179.68      
C           5.94        33.25       180.46      
C           6.18        32.47       181.61      
C           9.1         29.17       188.51      
C           10.37       28.71       188.85      
C           11.42       28.94       187.94      
C           11.27       29.6        186.77      
C           10.7        33.75       182.54      
C           10.95       31.78       180.94      
C           7.14        31.48       187.44      
C           6.58        29.11       186.67      
H           6.32        31.05       184.16      
H           11.33       30.98       183.94      
H           8.27        29.1        189.2       
H           12.06       29.67       186.06      
H           9.09        34.04       179.47      
H           5.41        32.07       182.23      
H           11.19       34.2        181.71      
H           11.54       33.48       183.29      
H           10.02993    34.43433    183.06038   
H           11.88       31.48       181.39      
H           11.28       32.53       180.21      
H           10.46968    30.86955    180.58156   
H           5.56        29.48       186.58      
H           6.58        28.62       187.63      
H           6.84236     28.32291    185.96307   
H           6.1         31.67       187.11      
H           7.15        31.33       188.55      
H           7.66116     32.38201    187.11928   
H           7.16        35.09       177.9       
H           10.32       28.15       190.94      
S           4.39        33.69       179.78      
C           6.53        34.47       178.56      
C           5.19        34.59       178.53      
C           14.94       26.48       193.38      
C           13.49       26.2        193.36      
C           15.24       27.49       192.46      
N           12.9        25.34       194.17      
N           11.4        26.2        192.37      
S           11.3        25.22       193.67      
H           14.83       28.67       190.8       
H           16.21       27.97       192.49      
C           14.32       27.99       191.47      
C           12.67       26.65       192.22      
C           13.08       27.52       191.22      
H           53.3        67.19       73.95       
H           15.68       26.11       194.18      
