612

C           33.93       60.08       6.98        
C           32.86       60.56       7.6         
S           35.45       60.71       7.6         
C           33.43       65.7        10.98       
C           34.64       65.08       10.61       
C           35.86       65.73       10.88       
C           35.79       66.88       11.64       
C           34.63       67.41       12.08       
C           33.38       66.89       11.64       
C           36.97       67.81       11.98       
C           36.27       68.69       13.04       
C           34.91       68.58       12.95       
C           32.26       64.95       10.32       
C           32.97       63.73       9.79        
C           34.34       63.82       9.88        
C           36.84       69.79       13.68       
C           36.05       70.76       14.33       
C           34.65       70.62       14.33       
C           34.05       69.53       13.59       
C           32.35       62.67       9.18        
C           33.17       61.7        8.47        
C           34.54       61.88       8.59        
C           35.17       62.9        9.25        
C           38.18       67.02       12.59       
C           37.5        68.71       10.83       
C           31.17       64.61       11.4        
C           31.5        65.71       9.1         
H           32.46       67.39       11.92       
H           36.85       65.42       10.52       
H           31.25       62.56       9.11        
H           36.19       62.95       9.34        
H           37.88       69.81       13.95       
H           33.01       69.35       13.54       
H           39.02       67.67       12.9        
H           38.51       66.32       11.84       
H           37.89211    66.48636    13.49579    
H           36.68       69.31       10.61       
H           38.24       69.38       11.25       
H           37.86286    68.26176    9.90506     
H           30.65       65.09       8.76        
H           32.27       65.72       8.3         
H           31.02334    66.6493     9.38039     
H           30.72       65.54       11.76       
H           30.51       63.89       10.91       
H           31.59558    64.14114    12.28722    
H           37.47       72.22       15.27       
H           31.83       60.19       7.41        
S           33.78       71.84       15.21       
C           36.43       71.93       15.08       
C           35.36       72.55       15.62       
C           34.42       57.0        3.76        
C           33.15       57.71       3.95        
C           35.36       57.28       4.76        
N           32.09       57.6        3.15        
N           31.85       59.35       4.9         
S           30.9        58.58       3.82        
H           35.82       58.31       6.63        
H           36.31       56.77       4.71        
C           35.12       58.19       5.79        
C           33.02       58.73       4.98        
C           34.05       59.04       5.88        
C           39.93       43.76       -4.16       
C           40.77       44.76       -3.78       
S           38.23       44.28       -3.98       
C           38.95       50.4        -2.12       
C           37.89       49.51       -2.46       
C           36.53       49.7        -2.21       
C           36.24       50.97       -1.58       
C           37.28       51.79       -1.17       
C           38.65       51.55       -1.47       
C           34.89       51.38       -0.95       
C           35.2        52.75       -0.46       
C           36.59       52.82       -0.33       
C           40.34       49.81       -2.48       
C           39.92       48.4        -2.88       
C           38.5        48.2        -2.85       
C           34.26       53.54       0.15        
C           34.78       54.49       1.0         
C           36.19       54.58       1.16        
C           37.11       53.86       0.44        
C           40.65       47.29       -3.23       
C           40.05       45.98       -3.48       
C           38.69       45.89       -3.5        
C           37.93       46.98       -3.12       
C           33.84       51.46       -2.06       
C           34.46       50.35       0.25        
C           40.91       50.7        -3.64       
C           41.22       49.87       -1.15       
H           39.42       52.29       -1.21       
H           35.75       48.97       -2.44       
H           41.76       47.39       -3.23       
H           36.85       46.92       -3.18       
H           33.18       53.37       -0.01       
H           38.17       53.92       0.52        
H           33.55       50.54       -2.57       
H           32.9        51.82       -1.62       
H           34.10839    52.15216    -2.85811    
H           35.21       50.31       1.05        
H           33.53       50.69       0.75        
H           34.11071    49.358      -0.03642    
H           41.07       50.91       -0.83       
H           40.75       49.38       -0.35       
H           42.23399    49.49526    -1.28961    
H           40.83       51.73       -3.34       
H           41.92       50.56       -3.9        
H           40.31942    50.66309    -4.5554     
H           33.03       55.62       1.74        
H           41.87       44.71       -3.78       
S           36.52       55.87       2.25        
C           34.07       55.38       1.82        
C           34.83       56.03       2.73        
C           41.09       40.58       -6.99       
C           39.82       40.54       -6.27       
C           41.96       41.47       -6.52       
N           38.78       39.66       -6.55       
N           38.18       41.39       -4.82       
S           37.48       40.16       -5.69       
H           42.34       43.21       -5.34       
H           42.96       41.57       -6.9        
C           41.55       42.45       -5.54       
C           39.44       41.5        -5.27       
C           40.33       42.54       -4.9        
C           42.99       40.94       -23.02      
C           43.96       41.28       -22.13      
S           41.69       40.05       -22.24      
C           43.84       39.58       -16.28      
C           42.68       39.24       -17.04      
C           41.59       38.5        -16.42      
C           41.62       38.49       -15.03      
C           42.75       39.0        -14.28      
C           43.91       39.42       -14.92      
C           40.49       38.12       -14.09      
C           41.08       38.48       -12.79      
C           42.34       39.08       -12.84      
C           44.95       40.23       -17.11      
C           44.26       40.22       -18.49      
C           42.98       39.58       -18.45      
C           40.5        38.33       -11.57      
C           41.15       38.9        -10.44      
C           42.34       39.57       -10.55      
C           43.0        39.6        -11.74      
C           44.64       40.77       -19.71      
C           43.76       40.75       -20.82      
C           42.59       39.98       -20.75      
C           42.16       39.33       -19.6       
C           39.15       38.96       -14.35      
C           40.13       36.61       -14.2       
C           45.23       41.67       -16.54      
C           46.26       39.43       -17.26      
H           44.82       39.64       -14.36      
H           40.78       38.12       -16.95      
H           45.61       41.24       -19.85      
H           41.23       38.85       -19.53      
H           39.51       37.87       -11.52      
H           44.05       39.92       -11.82      
H           38.27       38.55       -13.83      
H           39.01       38.84       -15.41      
H           39.28886    40.02926    -14.19031   
H           40.17       36.48       -15.3       
H           39.1        36.42       -13.82      
H           40.85274    35.93785    -13.73744   
H           46.8        39.49       -18.2       
H           46.0        38.37       -17.35      
H           47.02062    39.60607    -16.49938   
H           45.75       41.73       -15.59      
H           45.94       42.2        -17.2       
H           44.35388    42.31442    -16.46759   
H           39.7        38.58       -8.66       
H           44.86       41.87       -22.38      
S           42.9        40.12       -9.01       
C           40.61       39.08       -9.07       
C           41.42       39.82       -8.21       
C           43.11       42.51       -27.15      
C           42.15       41.54       -26.78      
C           43.79       43.02       -26.1       
N           41.34       40.99       -27.65      
N           41.24       39.9        -25.35      
S           40.59       39.75       -26.83      
H           44.56       42.84       -24.16      
H           44.44       43.92       -26.28      
C           43.75       42.48       -24.81      
C           42.0        40.99       -25.45      
C           42.94       41.38       -24.42      
C           42.69       54.51       -38.42      
C           41.64       54.1        -37.57      
S           43.98       53.31       -38.3       
C           42.14       49.52       -33.68      
C           43.17       49.47       -34.68      
C           44.14       48.5        -34.63      
C           44.17       47.61       -33.58      
C           43.11       47.64       -32.7       
C           42.03       48.47       -32.84      
C           45.11       46.48       -33.25      
C           44.35       45.74       -32.2       
C           43.15       46.5        -31.88      
C           41.19       50.68       -33.89      
C           41.69       51.16       -35.29      
C           42.94       50.64       -35.53      
C           44.75       44.78       -31.33      
C           43.92       44.39       -30.29      
C           42.75       45.15       -30.01      
C           42.31       46.18       -30.75      
C           41.16       52.28       -35.88      
C           41.91       52.92       -36.82      
C           43.19       52.33       -37.14      
C           43.67       51.21       -36.52      
C           45.39       45.49       -34.43      
C           46.44       46.96       -32.58      
C           39.74       50.17       -33.96      
C           41.33       51.91       -32.96      
H           41.17       48.46       -32.16      
H           44.94       48.41       -35.4       
H           40.13       52.73       -35.62      
H           44.6        50.8        -36.85      
H           45.66       44.26       -31.45      
H           41.35       46.73       -30.51      
H           46.13       44.77       -34.14      
H           45.88       46.04       -35.24      
H           44.485      44.95722    -34.72193   
H           46.16       47.61       -31.76      
H           46.99       46.15       -32.16      
H           47.04062    47.61715    -33.20889   
H           40.6        52.67       -33.28      
H           42.3        52.36       -33.18      
H           41.1655     51.67398    -31.90865   
H           39.36       50.07       -32.92      
H           39.14       50.97       -34.35      
H           39.59024    49.30713    -34.60894   
H           45.08       42.82       -29.26      
H           40.71       54.69       -37.5       
S           41.94       44.48       -28.57      
C           44.18       43.41       -29.25      
C           43.15       43.18       -28.44      
C           43.28       58.46       -40.42      
C           43.92       57.24       -40.88      
C           42.46       58.27       -39.31      
N           44.8        57.23       -41.91      
N           44.47       54.98       -40.91      
S           45.45       55.75       -41.97      
H           41.53       57.0        -37.92      
H           42.01       58.98       -38.69      
C           42.26       57.0        -38.75      
C           43.75       55.93       -40.28      
C           42.83       55.79       -39.19      
C           51.1        72.85       -41.66      
C           49.97       72.73       -40.88      
S           51.18       71.49       -42.74      
C           46.44       67.75       -40.77      
C           47.35       67.82       -41.92      
C           47.35       66.82       -42.93      
C           46.73       65.61       -42.71      
C           45.93       65.47       -41.52      
C           45.77       66.55       -40.57      
C           46.67       64.41       -43.57      
C           45.72       63.58       -42.67      
C           45.29       64.19       -41.5       
C           46.54       69.03       -39.82      
C           47.68       69.71       -40.65      
C           48.17       69.05       -41.84      
C           45.23       62.33       -42.99      
C           44.5        61.61       -42.02      
C           44.18       62.22       -40.79      
C           44.54       63.54       -40.56      
C           48.17       70.96       -40.26      
C           49.28       71.48       -41.04      
C           49.8        70.7        -42.07      
C           49.17       69.55       -42.61      
C           46.0        64.62       -44.98      
C           48.04       63.72       -43.6       
C           45.27       69.95       -39.67      
C           47.23       68.8        -38.48      
H           45.03       66.55       -39.74      
H           48.0        66.99       -43.77      
H           47.93       71.47       -39.35      
H           49.51       69.06       -43.48      
H           45.62       61.69       -43.75      
H           44.19       64.06       -39.69      
H           46.6        65.34       -45.57      
H           46.15       63.65       -45.47      
H           44.95394    64.91987    -44.91724   
H           48.33       63.46       -42.6       
H           48.04       62.74       -44.13      
H           48.80175    64.30542    -44.11489   
H           47.48       69.78       -38.03      
H           48.09       68.13       -38.61      
H           46.58357    68.37379    -37.71281   
H           44.42       69.49       -39.17      
H           45.52       70.84       -39.12      
H           44.91351    70.33501    -40.6254    
H           44.25       59.47       -42.84      
H           49.73       73.45       -40.14      
S           43.19       61.15       -39.8       
C           44.07       60.2        -42.01      
C           43.53       59.82       -40.88      
C           53.99       76.2        -42.18      
C           52.64       76.46       -41.71      
C           54.19       74.87       -42.52      
N           52.19       77.63       -41.26      
N           50.54       75.8        -41.08      
S           50.63       77.44       -40.87      
H           53.56       72.83       -42.73      
H           55.09       74.65       -43.12      
C           53.25       73.82       -42.39      
C           51.72       75.35       -41.5       
C           52.02       73.98       -41.8       
C           62.03       85.09       -52.98      
C           60.85       85.54       -52.57      
S           62.8        83.99       -51.88      
C           58.21       83.3        -47.5       
C           59.54       82.94       -47.74      
C           60.11       81.89       -47.12      
C           59.35       81.26       -46.11      
C           57.97       81.46       -46.06      
C           57.42       82.5        -46.71      
C           59.74       79.99       -45.27      
C           58.39       79.54       -44.82      
C           57.35       80.48       -45.21      
C           57.75       84.26       -48.58      
C           59.04       84.48       -49.35      
C           60.01       83.54       -48.92      
C           58.09       78.39       -44.11      
C           56.77       78.22       -43.68      
C           55.82       79.15       -44.04      
C           56.05       80.3        -44.83      
C           59.27       85.28       -50.51      
C           60.49       85.04       -51.3       
C           61.44       84.03       -50.78      
C           61.22       83.33       -49.58      
C           60.45       78.94       -46.11      
C           60.61       80.46       -44.01      
C           56.57       83.77       -49.42      
C           57.36       85.67       -47.98      
H           56.36       82.73       -46.65      
H           61.08       81.48       -47.37      
H           58.51       85.91       -50.94      
H           61.99       82.7        -49.27      
H           58.84       77.67       -43.88      
H           55.2        80.91       -45.0       
H           61.23       79.42       -46.79      
H           60.89       78.13       -45.41      
H           59.79321    78.41457    -46.80328   
H           60.01       81.09       -43.33      
H           60.87       79.57       -43.41      
H           61.57505    80.90262    -44.25671   
H           57.0        86.33       -48.69      
H           58.2        86.14       -47.5       
H           56.70028    85.67       -47.11232   
H           56.24       84.6        -50.04      
H           55.76       83.53       -48.76      
H           56.89742    82.86777    -49.9366    
H           56.71       76.2        -42.59      
H           60.21       86.22       -53.17      
S           54.27       78.73       -43.34      
C           56.18       77.11       -42.94      
C           54.92       77.18       -42.74      
C           64.37       85.3        -56.62      
C           63.77       86.5        -56.05      
C           64.0        84.2        -55.93      
N           63.92       87.68       -56.58      
N           62.32       87.74       -54.68      
S           63.02       88.77       -55.7       
H           62.96       83.21       -54.29      
H           64.41       83.29       -56.19      
C           63.23       84.18       -54.78      
C           62.88       86.54       -54.92      
C           62.7        85.32       -54.25      
C           77.51       85.55       -66.14      
C           77.28       84.37       -65.4       
S           75.99       86.37       -66.43      
C           72.01       83.49       -62.61      
C           71.97       84.5        -63.47      
C           70.91       85.38       -63.62      
C           69.91       85.37       -62.68      
C           69.86       84.27       -61.81      
C           70.88       83.32       -61.78      
C           68.71       86.34       -62.68      
C           67.99       85.68       -61.47      
C           68.64       84.47       -61.05      
C           73.26       82.61       -62.66      
C           74.03       83.51       -63.6       
C           73.3        84.56       -64.1       
C           66.81       86.09       -60.94      
C           66.35       85.45       -59.81      
C           67.05       84.31       -59.28      
C           68.12       83.77       -59.99      
C           75.34       83.35       -63.9       
C           75.97       84.27       -64.82      
C           75.14       85.4        -65.28      
C           73.81       85.51       -64.96      
C           69.14       87.83       -62.39      
C           67.89       86.02       -63.95      
C           73.75       82.4        -61.19      
C           72.88       81.19       -63.31      
H           70.72       82.48       -61.18      
H           71.03       86.28       -64.23      
H           75.88       82.59       -63.45      
H           73.16       86.26       -65.37      
H           66.23       87.03       -61.21      
H           68.72       82.91       -59.63      
H           69.9        87.97       -63.17      
H           68.37       88.49       -62.57      
H           69.68996    88.03262    -61.47099   
H           67.68       84.93       -63.83      
H           66.95       86.39       -63.96      
H           68.36858    86.22715    -64.90716   
H           72.18       80.63       -62.68      
H           72.38       81.23       -64.31      
H           73.70673    80.50339    -63.49216   
H           73.94       81.4        -60.94      
H           72.86       82.69       -60.59      
H           74.50409    83.111      -60.85246   
H           64.73       86.71       -59.08      
H           78.08       83.73       -65.13      
S           66.36       83.76       -57.74      
C           65.32       85.82       -58.88      
C           65.17       85.09       -57.81      
C           80.76       87.35       -68.56      
C           80.84       85.96       -68.37      
C           79.75       88.04       -67.89      
N           81.72       85.1        -68.82      
N           79.97       84.0        -67.42      
S           81.28       83.61       -68.31      
H           78.02       88.05       -66.67      
H           79.72       89.11       -67.93      
C           78.73       87.39       -67.1       
C           79.75       85.33       -67.53      
C           78.66       86.03       -66.92      
C           89.43       100.07      -75.24      
C           89.12       99.81       -73.95      
S           89.09       98.56       -76.09      
C           86.32       94.97       -71.53      
C           86.67       94.9        -72.92      
C           86.52       93.65       -73.53      
C           85.72       92.65       -72.9       
C           85.34       92.82       -71.55      
C           85.62       93.99       -70.87      
C           85.4        91.21       -73.33      
C           84.49       90.75       -72.18      
C           84.46       91.71       -71.18      
C           86.67       96.42       -71.07      
C           87.35       96.98       -72.3       
C           87.28       96.11       -73.4       
C           83.97       89.5        -71.97      
C           83.21       89.26       -70.8       
C           83.16       90.25       -69.79      
C           83.84       91.42       -69.97      
C           87.86       98.23       -72.38      
C           88.4        98.61       -73.63      
C           88.38       97.74       -74.7       
C           87.81       96.42       -74.63      
C           84.59       91.13       -74.65      
C           86.65       90.29       -73.32      
C           85.36       97.24       -70.76      
C           87.61       96.35       -69.89      
H           85.47       94.16       -69.83      
H           86.79       93.45       -74.57      
H           88.06       98.88       -71.5       
H           87.74       95.87       -75.56      
H           84.0        88.82       -72.79      
H           83.72       92.2        -69.2       
H           84.29       90.1        -74.81      
H           85.13       91.42       -75.56      
H           83.70851    91.76908    -74.59858   
H           87.08       90.22       -72.37      
H           86.38       89.31       -73.52      
H           87.32579    90.58566    -74.1225    
H           87.06       96.37       -68.98      
H           88.2        97.22       -69.79      
H           88.227      95.46122    -70.02221   
H           84.76       96.58       -70.11      
H           85.49       98.14       -70.16      
H           84.72041    97.43898    -71.6199    
H           82.33       87.22       -70.96      
H           89.23       100.56      -73.19      
S           82.23       89.66       -68.39      
C           82.48       88.07       -70.3       
C           81.75       88.24       -69.19      
C           92.19       103.24      -76.71      
C           91.46       102.5       -77.59      
C           91.7        103.13      -75.47      
N           91.72       102.41      -78.9       
N           90.13       100.67      -78.23      
S           90.81       101.25      -79.6       
H           90.5        102.07      -73.99      
H           92.16       103.74      -74.66      
C           90.82       102.05      -75.02      
C           90.49       101.4       -77.2       
C           90.27       101.14      -75.83      
C           106.31      111.71      -79.86      
C           105.84      111.67      -78.61      
S           104.97      111.41      -81.04      
C           100.48      109.05      -77.33      
C           100.75      109.19      -78.67      
C           99.81       108.81      -79.66      
C           98.71       108.13      -79.26      
C           98.43       107.86      -77.93      
C           99.31       108.41      -76.94      
C           97.58       107.63      -80.13      
C           96.74       106.77      -79.16      
C           97.24       106.99      -77.86      
C           101.41      109.93      -76.49      
C           102.52      110.14      -77.56      
C           102.03      109.82      -78.83      
C           95.65       106.0       -79.38      
C           94.92       105.47      -78.33      
C           95.47       105.59      -77.05      
C           96.58       106.42      -76.73      
C           103.8       110.76      -77.31      
C           104.51      111.07      -78.5       
C           103.97      110.8       -79.76      
C           102.69      110.25      -79.98      
C           96.9        108.86      -80.76      
C           98.16       106.69      -81.2       
C           100.81      111.36      -76.08      
C           102.14      109.25      -75.25      
H           98.99       108.38      -75.92      
H           99.95       109.05      -80.67      
H           104.09      111.02      -76.34      
H           102.2       110.25      -80.96      
H           95.42       105.76      -80.48      
H           96.87       106.68      -75.68      
H           96.8        108.6       -81.79      
H           97.54       109.81      -80.76      
H           95.9652     109.14114   -80.27503   
H           98.87       107.31      -81.72      
H           97.26       106.39      -81.8       
H           98.67993    105.83038   -80.77712   
H           102.69      110.07      -74.76      
H           102.85      108.59      -75.72      
H           101.51466   108.73708   -74.51927   
H           100.11      111.27      -75.28      
H           101.63      111.96      -75.56      
H           100.58025   112.00618   -76.92721   
H           93.09       104.53      -79.19      
H           106.42      111.98      -77.77      
S           94.51       104.67      -75.86      
C           93.69       104.72      -78.3       
C           93.31       104.15      -77.11      
C           110.36      112.09      -81.51      
C           110.06      112.47      -80.19      
C           109.3       111.73      -82.25      
N           110.91      112.89      -79.31      
N           108.62      112.9       -78.44      
S           110.15      113.2       -77.95      
H           107.25      111.33      -82.35      
H           109.4       111.24      -83.24      
C           107.98      111.62      -81.68      
C           108.71      112.42      -79.68      
C           107.65      111.89      -80.38      
C           124.53      112.42      -90.12      
C           123.31      112.36      -90.73      
S           124.37      112.18      -88.4       
C           118.04      112.05      -87.68      
C           119.23      112.2       -86.92      
C           119.23      112.31      -85.55      
C           118.03      112.23      -84.92      
C           116.87      111.91      -85.61      
C           116.84      111.95      -87.02      
C           117.84      112.3       -83.42      
C           116.34      112.12      -83.35      
C           115.82      111.92      -84.67      
C           118.38      112.09      -89.19      
C           119.89      112.2       -89.07      
C           120.36      112.16      -87.75      
C           115.49      112.04      -82.27      
C           114.06      111.95      -82.48      
C           113.6       111.87      -83.8       
C           114.45      111.8       -84.89      
C           120.77      112.24      -90.14      
C           122.18      112.25      -89.87      
C           122.64      112.2       -88.52      
C           121.68      112.14      -87.57      
C           118.51      111.15      -82.68      
C           118.13      113.65      -82.76      
C           117.81      110.85      -89.94      
C           117.82      113.39      -89.74      
H           116.01      111.57      -87.63      
H           120.2       112.63      -85.01      
H           120.41      112.14      -91.15      
H           122.02      112.16      -86.56      
H           115.91      112.15      -81.29      
H           114.11      111.61      -85.9       
H           118.57      111.45      -81.58      
H           119.63      111.1       -82.95      
H           118.02635   110.17569   -82.75009   
H           119.2       113.66      -82.62      
H           117.72      113.7       -81.78      
H           117.72759   114.47677   -83.34533   
H           118.48      114.16      -89.38      
H           116.87      113.63      -89.27      
H           117.71506   113.42498   -90.82437   
H           116.66      110.92      -89.98      
H           118.16      110.69      -90.95      
H           118.0531    109.9401    -89.39128   
H           113.26      112.03      -80.45      
H           123.25      112.45      -91.82      
S           111.85      111.89      -83.77      
C           113.03      112.02      -81.49      
C           111.72      111.96      -82.01      
C           128.79      112.9       -91.6       
C           127.66      113.06      -92.44      
C           128.42      112.42      -90.36      
N           127.82      113.13      -93.8       
N           125.46      112.98      -93.11      
S           126.36      113.21      -94.46      
H           126.95      111.78      -88.93      
H           129.17      112.02      -89.67      
C           127.06      112.23      -89.9       
C           126.27      112.94      -92.03      
C           125.93      112.6       -90.67      
H           35.39       73.56       15.98       
H           129.77      113.16      -91.95      
