612

C           64.77       41.31       65.26       
C           64.58       41.23       66.61       
S           64.2        39.85       64.42       
C           62.71       36.17       69.47       
C           62.78       36.07       68.0        
C           62.49       34.92       67.26       
C           62.08       33.82       68.02       
C           61.88       33.88       69.38       
C           62.22       35.03       70.12       
C           61.87       32.37       67.51       
C           61.11       31.8        68.73       
C           61.27       32.68       69.86       
C           63.08       37.63       69.92       
C           63.36       38.34       68.58       
C           63.15       37.41       67.56       
C           60.44       30.59       68.91       
C           60.02       30.23       70.19       
C           60.25       31.13       71.27       
C           60.95       32.32       71.17       
C           63.83       39.59       68.39       
C           64.01       40.02       67.02       
C           63.78       39.11       65.99       
C           63.35       37.81       66.28       
C           60.88       32.35       66.35       
C           63.17       31.59       67.21       
C           61.84       38.35       70.6        
C           64.28       37.72       70.83       
H           61.88       35.15       71.11       
H           62.43       35.05       66.19       
H           64.18       40.18       69.26       
H           63.15       37.12       65.45       
H           60.26       29.91       68.06       
H           61.11       32.96       72.06       
H           61.28       32.78       65.42       
H           60.7        31.33       66.05       
H           59.92172    32.82554    66.55895    
H           63.75       31.28       68.12       
H           62.78       30.61       66.84       
H           63.88611    32.03933    66.52197    
H           64.3        38.69       71.32       
H           65.22       37.69       70.22       
H           64.34522    36.99534    71.64162    
H           61.73       37.82       71.52       
H           62.14       39.42       70.79       
H           60.94221    38.43352    69.98755    
H           59.19       28.11       69.95       
H           64.9        42.03       67.31       
S           59.58       30.4        72.74       
C           59.28       29.03       70.6        
C           59.07       28.93       71.91       
C           66.62       44.57       62.9        
C           65.92       44.83       64.17       
C           66.43       43.29       62.47       
N           65.98       46.0        64.8        
N           64.75       44.32       66.13       
S           65.04       45.95       66.09       
H           65.86       41.25       62.89       
H           66.77       43.01       61.52       
C           65.91       42.24       63.36       
C           65.32       43.83       65.02       
C           65.38       42.46       64.58       
C           73.61       54.8        52.18       
C           72.52       55.24       52.9        
S           74.37       53.34       52.84       
C           70.22       52.16       57.58       
C           71.38       51.66       56.98       
C           71.94       50.43       57.31       
C           71.22       49.63       58.25       
C           70.04       50.05       58.79       
C           69.53       51.32       58.49       
C           71.73       48.25       58.75       
C           70.54       47.88       59.59       
C           69.61       48.97       59.69       
C           70.03       53.53       57.07       
C           71.03       53.66       55.95       
C           71.91       52.56       56.04       
C           70.21       46.71       60.21       
C           69.0        46.57       60.9        
C           68.17       47.67       61.1        
C           68.53       48.94       60.47       
C           71.21       54.61       54.99       
C           72.29       54.45       54.06       
C           73.17       53.38       54.13       
C           72.97       52.4        55.16       
C           71.81       47.2        57.59       
C           73.02       48.07       59.7        
C           68.66       53.73       56.41       
C           70.43       54.58       58.17       
H           68.6        51.65       59.0        
H           72.87       50.14       56.98       
H           70.44       55.42       54.97       
H           73.44       51.48       55.07       
H           70.9        45.88       60.05       
H           67.81       49.79       60.41       
H           72.79       47.15       57.21       
H           71.52       46.19       58.09       
H           71.07514    47.33824    56.79693    
H           72.71       48.45       60.65       
H           73.19       47.03       59.88       
H           73.91044    48.584      59.33803    
H           70.08       55.58       57.85       
H           71.49       54.55       58.18       
H           69.91914    54.4217     59.11977    
H           67.8        53.89       57.14       
H           68.72       54.63       55.8        
H           68.40731    52.9214     55.72413    
H           68.83       44.35       61.33       
H           71.78       56.02       52.59       
S           66.63       47.19       61.82       
C           68.4        45.36       61.41       
C           67.27       45.58       62.1        
C           74.59       55.41       47.98       
C           73.51       56.2        48.55       
C           75.29       54.64       48.83       
N           72.72       57.07       47.9        
N           71.99       56.68       50.19       
S           71.58       57.57       48.92       
H           75.63       53.97       50.87       
H           76.05       53.96       48.51       
C           74.98       54.55       50.2        
C           73.15       55.98       49.89       
C           73.86       55.11       50.76       
C           78.49       50.27       33.38       
C           79.5        50.49       34.26       
S           77.16       51.36       33.65       
C           78.84       53.99       39.19       
C           77.87       54.16       38.21       
C           76.65       54.75       38.52       
C           76.38       55.12       39.83       
C           77.33       54.81       40.83       
C           78.62       54.29       40.53       
C           75.04       55.67       40.4        
C           75.38       55.72       41.88       
C           76.69       55.1        42.09       
C           80.08       53.25       38.53       
C           79.55       52.95       37.14       
C           78.23       53.54       36.93       
C           74.53       56.04       42.91       
C           74.96       55.73       44.21       
C           76.27       55.14       44.39       
C           77.12       54.84       43.34       
C           80.06       52.15       36.16       
C           79.24       51.63       35.21       
C           77.99       52.2        34.95       
C           77.46       53.14       35.81       
C           74.77       57.13       39.9        
C           73.75       54.83       40.18       
C           81.34       54.14       38.41       
C           80.28       51.87       39.29       
H           79.36       54.05       41.3        
H           75.86       54.73       37.78       
H           81.14       51.88       36.16       
H           76.45       53.32       35.83       
H           73.52       56.43       42.8        
H           78.1        54.42       43.58       
H           74.39       57.11       38.87       
H           73.9        57.55       40.43       
H           75.69709    57.69776    39.97905    
H           73.56       54.56       39.12       
H           72.87       55.4        40.42       
H           73.8058     53.85358    40.66124    
H           80.46       51.1        38.52       
H           79.32       51.62       39.7        
H           81.14109    51.83412    39.95734    
H           81.61       54.49       39.44       
H           82.11       53.43       38.09       
H           81.26032    55.03091    37.78708    
H           73.22       56.23       45.46       
H           80.45       50.03       34.07       
S           76.54       54.81       46.1        
C           74.32       55.9        45.45       
C           74.98       55.45       46.57       
C           78.45       48.25       29.53       
C           77.35       48.06       30.42       
C           79.54       48.98       30.0        
N           76.22       47.36       30.16       
N           76.27       48.37       32.47       
S           75.25       47.46       31.51       
H           80.22       50.39       31.53       
H           80.41       49.13       29.4        
C           79.45       49.61       31.29       
C           77.32       48.64       31.71       
C           78.47       49.36       32.21       
C           78.37       53.55       14.35       
C           79.6        53.18       14.97       
S           76.97       52.82       15.1        
C           79.88       50.27       20.17       
C           78.61       50.32       19.52       
C           77.49       49.68       20.06       
C           77.72       49.01       21.3        
C           78.94       48.99       21.97       
C           80.05       49.57       21.36       
C           76.64       48.47       22.3        
C           77.46       47.98       23.51       
C           78.82       48.33       23.3        
C           80.89       50.96       19.28       
C           80.02       51.5        18.19       
C           78.65       51.13       18.36       
C           76.9        47.57       24.74       
C           77.79       47.63       25.82       
C           79.16       48.07       25.61       
C           79.67       48.32       24.33       
C           80.4        52.16       17.07       
C           79.35       52.4        16.13       
C           78.0        52.13       16.38       
C           77.61       51.46       17.49       
C           75.61       49.62       22.76       
C           75.86       47.18       21.84       
C           81.66       52.01       20.07       
C           81.92       49.91       18.73       
H           81.03       49.54       21.87       
H           76.56       49.78       19.56       
H           81.46       52.36       16.8        
H           76.61       51.25       17.73       
H           75.83       47.48       24.92       
H           80.72       48.68       24.2        
H           75.06       49.97       21.87       
H           74.8        49.31       23.44       
H           76.05716    50.49268    23.23601    
H           76.59       46.39       21.76       
H           75.07       47.03       22.6        
H           75.37489    47.28701    20.86978    
H           82.56       49.54       19.54       
H           82.57       50.36       18.07       
H           81.46303    49.00356    18.33296    
H           81.89       51.59       21.06       
H           82.67       52.22       19.73       
H           81.16432    52.98013    20.10541    
H           76.47       47.39       27.47       
H           80.54       53.63       14.75       
S           79.93       48.11       27.16       
C           77.46       47.56       27.2        
C           78.41       47.94       28.06       
C           77.56       56.72       11.5        
C           78.87       56.16       11.56       
C           76.58       56.18       12.26       
N           79.94       56.72       11.05       
N           80.39       54.65       12.38       
S           81.23       55.75       11.45       
H           75.97       54.76       13.78       
H           75.54       56.55       12.33       
C           76.82       55.05       13.16       
C           79.16       55.05       12.49       
C           78.06       54.44       13.27       
C           74.3        71.86       6.15        
C           74.02       71.4        7.41        
S           74.86       70.52       5.15        
C           74.46       65.53       8.82        
C           74.77       65.83       7.49        
C           75.41       64.92       6.65        
C           75.64       63.7        7.21        
C           75.1        63.33       8.44        
C           74.54       64.24       9.32        
C           76.69       62.68       6.75        
C           76.36       61.51       7.67        
C           75.45       61.93       8.65        
C           74.36       66.78       9.7         
C           74.25       67.86       8.64        
C           74.48       67.27       7.39        
C           77.16       60.37       7.86        
C           76.94       59.59       9.04        
C           75.95       59.99       9.96        
C           75.23       61.17       9.8         
C           73.92       69.19       8.75        
C           74.11       70.02       7.58        
C           74.48       69.4        6.45        
C           74.62       68.06       6.29        
C           76.56       62.2        5.3         
C           78.12       63.11       7.14        
C           73.04       66.64       10.58       
C           75.62       66.78       10.62       
H           74.36       63.95       10.36       
H           75.89       65.15       5.67        
H           73.73       69.61       9.72        
H           74.91       67.68       5.3         
H           77.85       60.05       7.04        
H           74.58       61.59       10.59       
H           76.73       63.09       4.6         
H           77.24       61.37       5.03        
H           75.54906    61.86544    5.06726     
H           78.36       63.18       8.17        
H           78.84       62.4        6.74        
H           78.48566    64.08267    6.8109      
H           75.69       65.93       11.21       
H           76.53       66.77       10.06       
H           75.62       67.65114    11.27515    
H           72.85       65.59       10.9        
H           73.22       67.17       11.5        
H           72.08971    66.79602    10.0694     
H           78.34       57.93       8.76        
H           73.87       72.09       8.23        
S           75.79       58.84       11.27       
C           77.57       58.32       9.39        
C           77.15       57.89       10.64       
C           74.57       75.85       4.25        
C           74.89       75.74       5.62        
C           74.36       74.65       3.63        
N           75.34       76.74       6.38        
N           74.97       74.61       7.61        
S           75.5        76.08       7.88        
H           73.99       72.51       3.59        
H           74.09       74.6        2.56        
C           74.3        73.39       4.26        
C           74.8        74.44       6.33        
C           74.47       73.23       5.62        
C           73.99       87.25       -6.8        
C           73.38       86.05       -7.02       
S           74.05       87.68       -5.11       
C           72.18       82.38       -2.35       
C           72.55       83.68       -2.01       
C           72.86       84.07       -0.76       
C           72.74       83.12       0.24        
C           72.38       81.8        -0.12       
C           72.0        81.42       -1.37       
C           73.35       83.12       1.7         
C           73.26       81.58       1.97        
C           72.58       80.86       0.96        
C           71.97       82.23       -3.92       
C           72.44       83.59       -4.35       
C           72.73       84.4        -3.27       
C           73.79       80.82       3.03        
C           73.85       79.43       3.04        
C           73.19       78.79       1.92        
C           72.48       79.48       0.93        
C           72.54       84.08       -5.61       
C           73.03       85.36       -5.84       
C           73.37       86.13       -4.71       
C           73.15       85.7        -3.4        
C           74.8        83.52       1.6         
C           72.48       83.86       2.75        
C           72.87       81.23       -4.65       
C           70.49       81.93       -4.17       
H           71.75       80.36       -1.61       
H           73.18       85.1        -0.53       
H           72.31       83.45       -6.44       
H           73.45       86.27       -2.54       
H           74.2        81.39       3.88        
H           72.1        78.97       0.1         
H           75.26       83.77       2.61        
H           74.86       84.44       1.08        
H           75.42253    82.77014    1.11188     
H           71.48       83.51       2.58        
H           72.93       83.66       3.78        
H           72.53552    84.93577    2.58343     
H           70.42       80.85       -3.91       
H           70.37       82.05       -5.23       
H           69.79493    82.52371    -3.57629    
H           72.7        80.26       -4.22       
H           72.62       81.19       -5.73       
H           73.92493    81.33549    -4.39682    
H           75.03       78.74       4.82        
H           73.31       85.65       -8.02       
S           73.3        77.07       2.09        
C           74.5        78.49       3.91        
C           74.29       77.19       3.57        
C           74.15       90.52       -9.85       
C           74.9        90.48       -8.65       
C           73.37       89.37       -9.93       
N           75.76       91.43       -8.36       
N           75.94       89.61       -6.73       
S           76.58       91.12       -7.01       
H           72.57       87.63       -9.05       
H           72.88       89.16       -10.88      
C           73.31       88.4        -8.87       
C           75.04       89.42       -7.68       
C           74.17       88.26       -7.78       
C           75.99       100.38      -22.95      
C           76.84       99.37       -22.66      
S           75.09       100.71      -21.42      
C           77.01       96.03       -17.39      
C           76.27       97.28       -17.36      
C           75.59       97.65       -16.18      
C           75.51       96.85       -15.1       
C           76.14       95.55       -15.22      
C           76.92       95.14       -16.32      
C           74.58       97.01       -13.92      
C           74.82       95.57       -13.31      
C           75.71       94.8        -14.12      
C           77.86       96.04       -18.68      
C           77.33       97.3        -19.43      
C           76.25       97.9        -18.69      
C           74.14       95.0        -12.24      
C           74.44       93.65       -11.95      
C           75.29       92.85       -12.77      
C           75.95       93.46       -13.79      
C           77.52       97.72       -20.72      
C           76.77       98.78       -21.3       
C           75.84       99.41       -20.48      
C           75.56       99.03       -19.15      
C           74.83       98.09       -12.85      
C           73.13       96.92       -14.34      
C           79.33       96.07       -18.37      
C           77.54       94.82       -19.59      
H           77.32       94.15       -16.21      
H           75.06       98.65       -16.18      
H           78.25       97.16       -21.32      
H           74.83       99.62       -18.54      
H           73.37       95.58       -11.67      
H           76.61       92.9        -14.46      
H           74.87       99.13       -13.25      
H           74.13       98.06       -12.11      
H           75.81281    98.06952    -12.37907   
H           72.95       95.93       -14.81      
H           72.48       96.9        -13.47      
H           72.74883    97.71166    -14.98505   
H           78.33       94.75       -20.34      
H           76.62       94.92       -20.16      
H           77.64669    93.84553    -19.11343   
H           79.93       95.19       -18.78      
H           79.45       95.89       -17.32      
H           79.82709    97.0057     -18.62586   
H           73.2        93.2        -10.23      
H           77.55       98.99       -23.39      
S           75.43       91.12       -12.21      
C           73.93       92.76       -10.98      
C           74.29       91.51       -10.91      
C           74.0        102.15      -26.48      
C           75.2        101.35      -26.65      
C           73.82       102.44      -25.19      
N           75.67       100.95      -27.76      
N           76.86       100.03      -25.89      
S           76.94       99.96       -27.51      
H           73.95       102.07      -23.12      
H           73.03       103.11      -25.01      
C           74.42       101.81      -24.09      
C           75.91       100.81      -25.53      
C           75.51       101.02      -24.15      
C           59.79       102.53      -33.48      
C           60.77       101.89      -34.1       
S           60.39       103.85      -32.52      
C           66.6        102.46      -32.8       
C           65.76       103.53      -32.41      
C           66.18       104.41      -31.37      
C           67.48       104.36      -30.87      
C           68.32       103.28      -31.33      
C           67.86       102.32      -32.23      
C           67.93       105.1       -29.62      
C           69.37       104.53      -29.6       
C           69.5        103.39      -30.52      
C           65.79       101.55      -33.75      
C           64.44       102.27      -33.79      
C           64.38       103.37      -32.89      
C           70.29       104.7       -28.62      
C           71.33       103.76      -28.48      
C           71.51       102.72      -29.42      
C           70.6        102.58      -30.49      
C           63.27       101.87      -34.35      
C           62.03       102.41      -33.91      
C           62.03       103.49      -32.96      
C           63.22       104.09      -32.63      
C           67.85       106.6       -29.96      
C           67.25       104.73      -28.34      
C           66.42       101.56      -35.24      
C           65.56       100.15      -33.15      
H           68.44       101.49      -32.48      
H           65.47       105.12      -31.04      
H           63.28       100.93      -34.87      
H           63.32       105.0       -31.95      
H           70.34       105.56      -27.95      
H           70.69       101.71      -31.12      
H           67.45       107.1       -29.12      
H           67.1        106.77      -30.7       
H           68.77633    107.05957   -30.30468   
H           66.35       105.33      -28.33      
H           67.81       105.09      -27.5       
H           67.14277    103.6506    -28.23277   
H           64.48       99.92       -33.13      
H           65.84       100.13      -32.09      
H           66.14093    99.34085    -33.59261   
H           67.45       101.17      -35.29      
H           65.85       100.95      -35.85      
H           66.44127    102.59528   -35.58037   
H           72.26       104.43      -26.63      
H           60.51       101.01      -34.65      
S           72.8        101.64      -28.91      
C           72.32       103.7       -27.42      
C           73.17       102.7       -27.56      
C           55.63       101.57      -32.45      
C           56.42       100.64      -33.25      
C           56.26       102.78      -32.36      
N           56.0        99.42       -33.6       
N           58.22       99.82       -34.4       
S           57.06       98.69       -34.61      
H           58.01       103.88      -32.28      
H           55.91       103.54      -31.69      
C           57.61       102.99      -32.7       
C           57.76       100.87      -33.66      
C           58.45       102.14      -33.3       
C           41.67       97.87       -24.0       
C           42.37       96.91       -24.8       
S           42.25       99.44       -24.48      
C           47.26       98.4        -28.22      
C           46.6        99.51       -27.62      
C           47.18       100.77      -27.6       
C           48.38       100.99      -28.3       
C           48.93       99.94       -29.05      
C           48.49       98.56       -28.92      
C           49.27       102.17      -28.16      
C           50.34       101.8       -29.24      
C           50.18       100.48      -29.65      
C           46.51       97.04       -28.01      
C           45.39       97.55       -27.13      
C           45.39       98.96       -27.01      
C           51.43       102.5       -29.59      
C           52.42       101.85      -30.46      
C           52.23       100.5       -30.85      
C           51.16       99.83       -30.31      
C           44.32       96.77       -26.54      
C           43.36       97.47       -25.69      
C           43.42       98.86       -25.66      
C           44.46       99.62       -26.25      
C           48.29       103.29      -28.49      
C           49.87       102.41      -26.75      
C           46.02       96.32       -29.31      
C           47.38       96.07       -27.12      
H           49.03       97.74       -29.37      
H           46.83       101.51      -26.9       
H           44.2        95.68       -26.57      
H           44.5        100.69      -26.02      
H           51.55       103.59      -29.28      
H           50.99       98.79       -30.66      
H           47.91       103.68      -27.52      
H           47.38       102.81      -29.02      
H           48.67085    104.10108   -29.11065   
H           49.12       102.72      -26.05      
H           50.58       103.26      -26.78      
H           50.23489    101.4942    -26.28495   
H           48.29       95.63       -27.54      
H           46.74       95.25       -26.86      
H           47.7211     96.58513    -26.22201   
H           46.69       96.02       -30.04      
H           45.68       95.34       -28.97      
H           45.1908     96.84445    -29.78484   
H           53.99       103.32      -30.72      
H           42.29       95.87       -24.69      
S           53.44       99.96       -31.96      
C           53.64       102.39      -31.0       
C           54.34       101.43      -31.78      
C           39.69       97.23       -20.12      
C           39.26       98.23       -20.88      
C           40.73       96.49       -20.54      
N           38.41       99.19       -20.49      
N           39.45       99.68       -22.68      
S           38.26       100.25      -21.72      
H           42.24       96.1        -22.03      
H           41.13       95.77       -19.9       
C           41.31       96.66       -21.87      
C           39.9        98.54       -22.14      
C           40.91       97.7        -22.74      
C           37.97       94.5        -3.83       
C           38.33       93.6        -4.76       
S           37.72       96.09       -4.57       
C           38.44       94.6        -10.72      
C           38.16       95.72       -9.95       
C           37.92       96.96       -10.51      
C           37.94       97.02       -11.92      
C           38.19       95.94       -12.73      
C           38.5        94.72       -12.12      
C           37.67       98.28       -12.78      
C           38.03       97.73       -14.14      
C           38.31       96.32       -14.13      
C           38.74       93.37       -9.93       
C           38.5        93.95       -8.5        
C           38.13       95.37       -8.54       
C           38.16       98.31       -15.36      
C           38.5        97.57       -16.53      
C           38.73       96.16       -16.43      
C           38.68       95.53       -15.22      
C           38.48       93.28       -7.27       
C           38.3        94.0        -6.09       
C           37.93       95.4        -6.2        
C           37.9        96.11       -7.39       
C           36.21       98.71       -12.75      
C           38.63       99.46       -12.4       
C           37.69       92.2        -10.17      
C           40.21       92.86       -9.96       
H           38.58       93.82       -12.74      
H           37.83       97.92       -9.92       
H           38.74       92.23       -7.2        
H           37.57       97.16       -7.46       
H           38.12       99.4        -15.43      
H           38.78       94.44       -15.11      
H           36.03       99.7        -13.2       
H           35.89       98.83       -11.68      
H           35.52298    97.9955     -13.20343   
H           38.44       100.05      -11.48      
H           38.54       100.27      -13.13      
H           39.66723    99.14142    -12.50372   
H           40.19       92.12       -9.23       
H           40.92       93.58       -9.59       
H           40.57683    92.35913    -10.85592   
H           37.88       91.6        -11.06      
H           37.83       91.41       -9.36       
H           36.68447    92.61608    -10.10759   
H           38.85       99.07       -18.08      
H           38.5        92.59       -4.39       
S           39.32       95.5        -17.93      
C           38.87       98.01       -17.84      
C           39.29       97.03       -18.67      
C           37.52       94.85       0.63        
C           37.44       93.6        -0.08       
C           37.8        95.89       -0.26       
N           37.25       92.44       0.49        
N           37.63       92.15       -1.82       
S           37.26       91.21       -0.6        
H           38.22       96.63       -2.26       
H           37.86       96.88       0.21        
C           38.07       95.75       -1.68       
C           37.62       93.45       -1.51       
C           37.89       94.53       -2.33       
H           59.19       27.96       72.45       
H           37.79       95.01       1.67        
