612

C           21.05       79.46       47.7        
C           21.42       80.32       46.68       
S           19.72       80.13       48.61       
C           18.9        85.82       46.11       
C           18.24       84.95       47.04       
C           17.29       85.41       47.93       
C           16.82       86.7        47.75       
C           17.32       87.53       46.76       
C           18.47       87.14       45.92       
C           15.91       87.52       48.7        
C           15.7        88.82       48.01       
C           16.63       88.83       46.91       
C           20.13       85.1        45.53       
C           19.96       83.69       45.97       
C           18.93       83.63       46.96       
C           14.97       89.91       48.45       
C           15.09       91.08       47.69       
C           15.95       91.12       46.59       
C           16.75       90.0        46.2        
C           20.85       82.65       45.85       
C           20.68       81.56       46.71       
C           19.65       81.57       47.65       
C           18.82       82.64       47.83       
C           14.56       86.8        48.71       
C           16.5        87.81       50.12       
C           20.17       84.97       43.99       
C           21.43       85.73       45.91       
H           18.9        87.89       45.35       
H           16.79       84.69       48.58       
H           21.56       82.55       45.0        
H           18.13       82.7        48.69       
H           14.33       89.9        49.39       
H           17.41       90.11       45.32       
H           14.74       85.8        49.04       
H           13.97       87.28       49.53       
H           14.02471    86.90706    47.76655    
H           17.44       88.37       50.04       
H           15.84       88.53       50.6        
H           16.60706    86.97494    50.81232    
H           21.69       86.49       45.24       
H           22.23       85.04       45.85       
H           21.45841    86.2059     46.89021    
H           20.2        85.92       43.63       
H           21.09       84.47       43.64       
H           19.28046    84.50109    43.56936    
H           13.66       92.41       48.77       
H           22.23       80.09       46.01       
S           15.57       92.56       45.68       
C           14.39       92.26       47.96       
C           14.51       93.19       46.92       
C           23.27       76.08       49.23       
C           23.91       77.03       48.38       
C           21.93       76.33       49.41       
N           25.17       76.91       47.91       
N           24.01       78.74       46.86       
S           25.41       77.95       46.67       
H           20.21       77.67       49.28       
H           21.4        75.74       50.14       
C           21.24       77.46       48.91       
C           23.16       78.07       47.69       
C           21.83       78.37       48.1        
C           28.57       60.52       51.69       
C           29.13       61.36       50.77       
S           27.53       61.46       52.76       
C           27.62       67.31       50.5        
C           27.04       66.57       51.59       
C           25.85       67.07       52.19       
C           25.48       68.34       51.81       
C           26.18       69.12       50.85       
C           27.16       68.58       50.05       
C           24.43       69.25       52.47       
C           24.47       70.54       51.63       
C           25.52       70.45       50.72       
C           28.7        66.46       49.81       
C           28.55       65.07       50.46       
C           27.71       65.27       51.62       
C           23.69       71.64       51.79       
C           24.04       72.73       50.93       
C           25.14       72.63       50.07       
C           25.98       71.5        49.95       
C           29.1        63.83       50.09       
C           28.76       62.76       50.87       
C           27.96       62.95       52.06       
C           27.41       64.19       52.39       
C           23.03       68.56       52.29       
C           24.66       69.54       53.95       
C           28.21       66.36       48.33       
C           30.1        66.94       49.87       
H           27.61       69.12       49.28       
H           25.3        66.53       52.98       
H           29.76       63.69       49.18       
H           26.75       64.34       53.21       
H           22.91       71.74       52.57       
H           26.74       71.45       49.19       
H           22.17       68.86       52.93       
H           23.01       67.54       52.64       
H           22.80437    68.40715    51.23462    
H           24.53       68.68       54.56       
H           23.9        70.24       54.14       
H           25.66847    69.93771    54.06363    
H           30.49       67.42       48.94       
H           30.69       66.06       50.15       
H           30.25069    67.63603    50.69519    
H           28.16       67.36       47.83       
H           29.07       65.84       47.89       
H           27.3586     65.69462    48.18691    
H           22.46       74.31       51.19       
H           29.77       60.99       49.95       
S           25.36       74.11       49.12       
C           23.37       73.98       50.69       
C           23.88       74.82       49.75       
C           28.47       56.08       51.61       
C           28.44       56.81       52.88       
C           28.53       56.93       50.55       
N           28.35       56.24       54.12       
N           28.49       58.72       54.26       
S           28.4        57.41       55.23       
H           28.56       58.87       49.66       
H           28.46       56.54       49.55       
C           28.57       58.37       50.59       
C           28.55       58.26       52.97       
C           28.58       59.05       51.75       
C           22.74       40.84       53.44       
C           22.17       41.65       52.53       
S           24.28       41.42       54.04       
C           24.4        47.23       51.38       
C           25.16       46.43       52.32       
C           26.26       46.96       53.04       
C           26.64       48.18       52.7        
C           25.95       48.97       51.72       
C           24.77       48.52       51.14       
C           27.95       48.81       53.17       
C           27.73       50.22       52.54       
C           26.61       50.24       51.68       
C           23.24       46.47       50.73       
C           23.33       45.17       51.61       
C           24.5        45.14       52.44       
C           28.57       51.24       52.67       
C           28.31       52.44       52.02       
C           27.21       52.51       51.13       
C           26.4        51.39       50.89       
C           22.56       43.96       51.47       
C           22.91       42.84       52.27       
C           24.05       42.93       53.15       
C           24.77       44.12       53.26       
C           27.94       48.78       54.68       
C           29.21       48.14       52.54       
C           21.96       47.33       50.99       
C           23.49       46.22       49.2        
H           24.32       49.02       50.32       
H           26.86       46.4        53.7        
H           21.71       43.93       50.81       
H           25.65       44.13       53.91       
H           29.44       51.11       53.24       
H           25.62       51.35       50.09       
H           28.92       49.14       55.02       
H           27.84       47.8        55.07       
H           27.10141    49.34376    55.08872    
H           29.7        47.64       53.4        
H           29.87       48.89       52.18       
H           28.99948    47.34146    51.82858    
H           22.98       47.1        48.74       
H           22.9        45.36       48.84       
H           24.55663    46.03874    49.06754    
H           21.75       48.25       50.31       
H           21.06       46.65       50.75       
H           21.76768    47.60474    52.02713    
H           29.77       53.9        52.87       
H           21.25       41.4        52.01       
S           27.15       54.04       50.29       
C           28.96       53.65       52.19       
C           28.38       54.63       51.42       
C           21.72       36.86       55.09       
C           21.37       37.17       53.71       
C           22.4        37.88       55.69       
N           20.67       36.32       52.94       
N           21.0        38.64       51.94       
S           20.43       37.21       51.59       
H           23.19       39.79       55.69       
H           22.65       37.85       56.76       
C           22.7        39.09       55.07       
C           21.6        38.45       53.12       
C           22.39       39.46       53.79       
C           12.73       25.63       63.28       
C           13.28       26.65       64.07       
S           13.78       25.4        61.95       
C           17.52       30.41       61.77       
C           17.3        29.21       61.05       
C           17.92       29.01       59.82       
C           18.7        30.03       59.2        
C           18.85       31.29       59.85       
C           18.31       31.48       61.14       
C           19.15       30.1        57.77       
C           19.72       31.49       57.69       
C           19.6        32.15       58.89       
C           16.73       30.48       63.11       
C           16.07       29.08       62.98       
C           16.35       28.39       61.77       
C           20.11       32.15       56.51       
C           20.61       33.47       56.58       
C           20.5        34.13       57.83       
C           20.03       33.47       58.99       
C           15.2        28.51       63.9        
C           14.45       27.38       63.48       
C           14.86       26.73       62.29       
C           15.9        27.16       61.43       
C           20.3        29.03       57.52       
C           17.97       29.79       56.81       
C           17.82       30.51       64.21       
C           15.82       31.68       63.16       
H           18.44       32.48       61.55       
H           17.78       28.05       59.3        
H           14.86       29.0        64.77       
H           16.15       26.71       60.49       
H           20.14       31.59       55.54       
H           20.05       33.92       60.0        
H           20.09       28.64       56.46       
H           20.13       28.24       58.25       
H           21.30595    29.42819    57.65273    
H           17.61       28.74       56.86       
H           18.34       29.97       55.75       
H           17.10348    30.43108    56.97203    
H           16.35       32.58       63.25       
H           15.22       31.61       64.08       
H           15.22141    31.7822     62.25482    
H           18.45       31.31       63.97       
H           18.32       29.48       64.19       
H           17.42395    30.60194    65.22133    
H           21.12       34.05       54.51       
H           12.85       26.89       65.07       
S           21.1        35.82       57.61       
C           21.05       34.38       55.51       
C           21.41       35.65       55.86       
C           8.91        23.47       63.47       
C           9.05        24.63       64.24       
C           10.07       23.05       62.79       
N           8.19        25.14       65.12       
N           10.35       26.4        64.99       
S           8.9         26.45       65.85       
H           12.2        23.3        62.37       
H           10.1        22.14       62.18       
C           11.28       23.73       62.75       
C           10.31       25.36       64.17       
C           11.39       24.93       63.33       
C           -5.77       15.71       62.88       
C           -5.09       16.29       61.79       
S           -4.95       16.26       64.32       
C           0.42        18.9        62.21       
C           -0.14       18.43       63.43       
C           0.53        18.7        64.66       
C           1.79        19.39       64.63       
C           2.3         19.82       63.41       
C           1.6         19.59       62.23       
C           2.6         20.04       65.74       
C           3.71        20.74       64.94       
C           3.47        20.64       63.52       
C           -0.35       18.2        61.06       
C           -1.67       17.77       61.73       
C           -1.39       17.79       63.13       
C           4.85        21.24       65.35       
C           5.78        21.75       64.36       
C           5.45        21.69       62.99       
C           4.29        21.15       62.56       
C           -2.91       17.47       61.24       
C           -3.86       16.9        62.1        
C           -3.53       16.84       63.47       
C           -2.34       17.29       64.05       
C           1.61        21.06       66.31       
C           3.01        18.97       66.75       
C           -0.65       19.26       59.96       
C           0.4         16.96       60.6        
H           2.12        19.82       61.28       
H           0.2         18.24       65.57       
H           -3.08       17.58       60.17       
H           -2.14       17.31       65.1        
H           5.02        21.2        66.41       
H           4.22        20.9        61.53       
H           0.85        20.53       66.87       
H           1.13        21.68       65.62       
H           2.04096     21.74236    67.04264    
H           2.06        18.67       67.24       
H           3.63        19.35       67.5        
H           3.41936     18.07087    66.28947    
H           1.3         17.18       60.14       
H           0.71        16.45       61.48       
H           -0.11858    16.30313    59.90165    
H           0.38        19.5        59.58       
H           -1.32       18.85       59.29       
H           -1.06471    20.20693    60.30559    
H           7.42        22.5        65.61       
H           -5.5        16.25       60.82       
S           6.85        22.26       62.09       
C           7.08        22.24       64.65       
C           7.77        22.54       63.52       
C           -9.96       14.61       63.76       
C           -9.64       15.54       62.7        
C           -8.82       14.02       64.26       
N           -10.51      16.24       61.98       
N           -8.17       16.75       61.31       
S           -9.7        17.24       60.92       
H           -6.71       13.81       64.46       
H           -8.92       13.22       65.04       
C           -7.48       14.32       63.86       
C           -8.26       15.8        62.29       
C           -7.12       15.25       62.97       
C           -21.4       12.03       75.22       
C           -20.31      11.25       75.01       
S           -21.66      13.06       73.77       
C           -16.79      11.49       70.09       
C           -17.77      12.44       70.16       
C           -17.92      13.46       69.18       
C           -16.91      13.54       68.26       
C           -15.85      12.6        68.23       
C           -15.8       11.53       69.17       
C           -16.57      14.71       67.31       
C           -15.43      14.17       66.52       
C           -14.96      13.01       67.12       
C           -16.69      10.63       71.38       
C           -17.9       11.2        72.1        
C           -18.52      12.19       71.32       
C           -14.86      14.68       65.38       
C           -13.54      14.24       65.03       
C           -13.07      13.06       65.72       
C           -13.81      12.43       66.69       
C           -18.43      10.78       73.34       
C           -19.64      11.35       73.76       
C           -20.23      12.39       72.97       
C           -19.66      12.82       71.86       
C           -17.8       15.1        66.44       
C           -15.95      15.95       68.04       
C           -16.99      9.1         71.2        
C           -15.41      10.79       72.27       
H           -15.04      10.74       69.18       
H           -18.7       14.18       69.22       
H           -17.89      10.21       74.07       
H           -20.14      13.63       71.37       
H           -15.24      15.7        65.02       
H           -13.43      11.54       67.19       
H           -18.68      15.34       67.04       
H           -17.59      16.09       65.9        
H           -18.02996   14.31257    65.72225    
H           -14.94      15.91       68.45       
H           -15.76      16.65       67.25       
H           -16.58352   16.33562    68.83878    
H           -14.69      10.02       72.07       
H           -15.64      10.58       73.33       
H           -14.97469   11.78907    72.29141    
H           -16.21      8.63        70.72       
H           -17.12      8.62        72.16       
H           -17.87958   8.94217     70.59021    
H           -12.59      15.67       63.62       
H           -20.12      10.48       75.68       
S           -11.42      12.72       65.17       
C           -12.5       14.78       64.13       
C           -11.3       14.19       64.28       
C           -24.12      11.81       78.65       
C           -22.68      11.74       78.88       
C           -24.47      11.92       77.3        
N           -22.06      11.65       80.09       
N           -20.5       11.65       78.09       
S           -20.45      11.47       79.69       
H           -24.05      12.21       75.18       
H           -25.52      12.1        77.07       
C           -23.58      11.98       76.17       
C           -21.8       11.89       77.76       
C           -22.24      12.07       76.39       
C           -38.5       16.97       83.56       
C           -38.23      15.98       82.69       
S           -37.02      17.35       84.48       
C           -32.85      13.11       82.01       
C           -32.8       14.24       82.91       
C           -31.63      14.58       83.65       
C           -30.48      13.96       83.23       
C           -30.51      12.85       82.34       
C           -31.69      12.4        81.77       
C           -29.05      14.26       83.67       
C           -28.31      13.36       82.72       
C           -29.15      12.49       82.03       
C           -34.29      12.9        81.42       
C           -35.0       14.12       82.0        
C           -34.14      14.84       82.93       
C           -26.97      13.3        82.46       
C           -26.44      12.57       81.39       
C           -27.33      11.68       80.71       
C           -28.71      11.63       81.08       
C           -36.35      14.43       81.93       
C           -36.88      15.53       82.64       
C           -36.04      16.15       83.6        
C           -34.67      15.9        83.67       
C           -28.68      15.67       83.23       
C           -28.54      13.81       85.12       
C           -34.19      12.96       79.89       
C           -35.06      11.59       81.88       
H           -31.69      11.56       81.1        
H           -31.64      15.48       84.27       
H           -36.99      13.92       81.24       
H           -34.08      16.33       84.45       
H           -26.32      13.92       83.01       
H           -29.41      11.15       80.48       
H           -29.25      16.36       83.81       
H           -27.7       15.97       83.5        
H           -28.90494   15.91671    82.19239    
H           -28.54      12.74       85.28       
H           -27.52      14.19       85.1        
H           -29.05703   14.30578    85.94158    
H           -36.11      11.58       81.53       
H           -35.01      11.53       82.98       
H           -34.60634   10.65475    81.55197    
H           -35.13      12.61       79.38       
H           -33.43      12.22       79.58       
H           -33.90619   13.95332    79.54234    
H           -24.17      13.16       81.01       
H           -38.95      15.64       81.98       
S           -26.59      10.96       79.29       
C           -25.12      12.54       80.74       
C           -25.15      11.92       79.56       
C           -42.02      19.3        84.83       
C           -42.04      18.44       83.69       
C           -40.76      19.47       85.31       
N           -43.18      18.28       83.04       
N           -41.26      17.0        82.08       
S           -42.9       17.15       81.85       
H           -38.69      18.93       85.27       
H           -40.57      20.06       86.22       
C           -39.67      18.76       84.8        
C           -40.91      17.77       83.14       
C           -39.67      17.78       83.85       
C           -51.83      21.65       97.96       
C           -50.66      22.26       97.66       
S           -52.32      20.85       96.49       
C           -47.45      22.35       92.37       
C           -48.67      21.57       92.35       
C           -49.01      20.79       91.18       
C           -48.14      20.76       90.1        
C           -46.97      21.61       90.09       
C           -46.59      22.4        91.24       
C           -48.26      19.84       88.9        
C           -47.02      20.22       88.15       
C           -46.23      21.08       88.92       
C           -47.29      22.95       93.75       
C           -48.56      22.46       94.52       
C           -49.43      21.74       93.67       
C           -46.5       19.71       86.98       
C           -45.18      19.94       86.64       
C           -44.45      20.83       87.45       
C           -44.91      21.35       88.66       
C           -48.93      22.62       95.87       
C           -50.1       22.15       96.35       
C           -50.95      21.38       95.49       
C           -50.67      21.18       94.12       
C           -48.24      18.36       89.34       
C           -49.49      20.29       88.04       
C           -46.03      22.34       94.44       
C           -47.22      24.41       93.46       
H           -45.66      22.98       91.22       
H           -49.85      20.21       91.18       
H           -48.25      23.17       96.44       
H           -51.34      20.48       93.56       
H           -47.12      18.99       86.46       
H           -44.28      21.94       89.33       
H           -48.56      17.81       88.43       
H           -49.0       18.06       90.02       
H           -47.27499   17.97816    89.67324    
H           -50.42      19.78       88.4        
H           -49.31      20.08       86.99       
H           -49.70113   21.35927    88.05362    
H           -46.21      24.6        93.07       
H           -47.88      24.68       92.65       
H           -47.43174   25.08053    94.29286    
H           -45.87      22.6        95.56       
H           -45.2       22.93       93.92       
H           -45.99402   21.25347    94.36085    
H           -44.84      18.68       84.78       
H           -50.1       22.82       98.41       
S           -42.85      20.98       86.85       
C           -44.46      19.42       85.54       
C           -43.14      19.84       85.56       
C           -54.06      21.68       101.71      
C           -54.72      21.23       100.51      
C           -52.7       22.0        101.63      
N           -55.94      20.78       100.44      
N           -54.7       20.49       98.35       
S           -56.24      20.44       98.86       
H           -50.93      22.34       100.45      
H           -52.07      22.4        102.42      
C           -52.01      21.98       100.39      
C           -54.0       21.11       99.25       
C           -52.62      21.53       99.2        
C           -60.46      27.08       115.75      
C           -59.2       26.52       115.82      
S           -61.43      26.64       114.35      
C           -57.13      23.77       110.77      
C           -58.43      24.28       110.72      
C           -59.23      24.14       109.6       
C           -58.61      23.54       108.49      
C           -57.3       23.21       108.58      
C           -56.55      23.21       109.73      
C           -59.11      23.5        107.02      
C           -57.9       22.99       106.31      
C           -56.81      22.88       107.2       
C           -56.52      23.99       112.18      
C           -57.65      24.71       112.88      
C           -58.78      24.89       112.0       
C           -57.75      22.75       104.89      
C           -56.48      22.5        104.42      
C           -55.46      22.28       105.36      
C           -55.62      22.42       106.76      
C           -57.67      25.28       114.15      
C           -58.87      25.86       114.55      
C           -60.02      25.96       113.72      
C           -59.99      25.38       112.47      
C           -60.39      22.57       106.84      
C           -59.28      24.88       106.3       
C           -56.17      22.59       112.89      
C           -55.3       24.94       112.2       
H           -55.52      22.83       109.74      
H           -60.32      24.37       109.52      
H           -56.73      25.35       114.68      
H           -60.88      25.36       111.87      
H           -58.55      22.81       104.18      
H           -54.74      22.21       107.4       
H           -61.25      23.09       107.24      
H           -60.77      22.61       105.79      
H           -60.34014   21.55135    107.22466   
H           -58.24      25.26       106.26      
H           -59.57      24.66       105.31      
H           -59.93371   25.56848    106.83549   
H           -55.0       25.13       113.2       
H           -55.54      25.86       111.66      
H           -54.4183    24.56008    111.68389   
H           -55.43      22.05       112.27      
H           -55.82      22.82       113.93      
H           -57.09385   22.02201    112.99949   
H           -56.75      22.43       102.31      
H           -58.5       26.68       116.62      
S           -53.99      21.85       104.5       
C           -56.06      22.29       103.12      
C           -54.81      21.88       102.96      
C           -62.42      30.3        118.15      
C           -60.97      30.21       118.1       
C           -63.07      29.29       117.46      
N           -60.09      31.03       118.6       
N           -59.0       29.25       117.21      
S           -58.6       30.58       118.09      
H           -62.96      27.58       116.17      
H           -64.11      29.4        117.32      
C           -62.4       28.27       116.7       
C           -60.31      29.14       117.25      
C           -61.03      28.06       116.63      
C           -71.35      43.81       122.15      
C           -71.64      42.99       121.1       
S           -69.82      43.23       122.82      
C           -68.68      37.65       119.94      
C           -68.23      38.42       121.01      
C           -67.05      38.18       121.69      
C           -66.31      37.01       121.33      
C           -66.78      36.29       120.28      
C           -67.9       36.59       119.5       
C           -65.13      36.29       122.06      
C           -64.83      35.23       121.0       
C           -65.88      35.17       120.06      
C           -69.96      38.29       119.36      
C           -70.03      39.67       120.1       
C           -69.03      39.71       121.15      
C           -63.76      34.37       120.94      
C           -63.81      33.37       119.99      
C           -64.91      33.26       119.09      
C           -65.95      34.18       119.09      
C           -70.94      40.73       119.98      
C           -70.83      41.8        120.91      
C           -69.81      41.78       121.88      
C           -68.88      40.75       122.04      
C           -63.86      37.2        122.14      
C           -65.41      35.65       123.4       
C           -69.92      38.14       117.77      
C           -71.15      37.43       119.88      
H           -68.16      36.03       118.6       
H           -66.75      38.83       122.53      
H           -71.7       40.8        119.19      
H           -68.09      40.75       122.84      
H           -62.94      34.36       121.6       
H           -66.67      34.25       118.31      
H           -63.98      37.95       122.91      
H           -63.07      36.57       122.49      
H           -63.55732   37.57307    121.16158   
H           -65.94      36.32       124.03      
H           -64.6       35.26       124.05      
H           -66.10397   34.81145    123.34217   
H           -71.18      36.36       119.57      
H           -71.0       37.37       120.96      
H           -72.1712    37.80135    119.7943    
H           -70.3       37.17       117.49      
H           -68.87      38.13       117.59      
H           -70.45524   38.8654     117.15729   
H           -61.86      32.12       120.23      
H           -72.52      43.12       120.49      
S           -64.64      31.89       118.06      
C           -62.8       32.32       119.7       
C           -63.12      31.42       118.8       
C           -73.18      47.71       123.0       
C           -72.78      46.74       124.02      
C           -72.97      47.25       121.77      
N           -72.91      46.9        125.31      
N           -71.83      44.71       124.77      
S           -72.27      45.59       126.1       
H           -72.27      45.72       120.36      
H           -73.12      47.96       120.91      
C           -72.42      45.96       121.43      
C           -72.07      45.53       123.73      
C           -71.94      45.11       122.36      
H           14.22       94.21       47.12       
H           -73.27      48.84       123.2       
