612

C           80.17       10.42       57.76       
C           81.38       10.82       58.15       
S           79.88       8.76        58.33       
C           85.11       7.26        61.52       
C           84.03       6.64        60.89       
C           83.72       5.26        61.12       
C           84.49       4.56        61.98       
C           85.61       5.22        62.63       
C           85.89       6.55        62.43       
C           84.39       3.1         62.48       
C           85.69       2.99        63.27       
C           86.38       4.27        63.35       
C           85.31       8.69        60.99       
C           83.92       8.96        60.36       
C           83.22       7.68        60.25       
C           86.14       1.93        63.98       
C           87.43       1.99        64.58       
C           88.19       3.17        64.42       
C           87.66       4.36        63.88       
C           83.44       10.04       59.63       
C           82.16       9.95        59.01       
C           81.42       8.7         59.09       
C           81.96       7.56        59.62       
C           83.12       3.06        63.35       
C           84.52       2.11        61.32       
C           85.59       9.68        62.07       
C           86.31       8.76        59.87       
H           86.76       7.03        62.85       
H           82.95       4.76        60.68       
H           83.99       11.0        59.66       
H           81.48       6.65        59.68       
H           85.59       0.98        63.84       
H           88.16       5.29        63.82       
H           82.38       2.47        62.87       
H           82.69       4.05        63.36       
H           83.18367    2.81946     64.41122    
H           85.51       2.15        60.87       
H           84.43       1.07        61.76       
H           83.69971    2.21254     60.60957    
H           86.97       9.65        60.03       
H           85.83       8.92        58.86       
H           86.97819    7.89988     59.82735    
H           86.39       9.33        62.64       
H           85.89       10.62       61.69       
H           84.72426    9.93423     62.68152    
H           87.75       0.0         65.3        
H           81.65       11.88       57.87       
S           89.79       2.93        65.1        
C           88.15       0.98        65.24       
C           89.39       1.34        65.71       
C           77.18       11.28       54.64       
C           78.55       11.75       54.52       
C           76.96       10.83       55.94       
N           79.13       12.27       53.41       
N           80.74       12.17       55.31       
S           80.76       12.51       53.7        
H           77.62       10.15       57.85       
H           76.03       10.29       56.1        
C           77.92       10.66       56.96       
C           79.53       11.64       55.59       
C           79.25       10.94       56.81       
C           66.97       5.67        42.81       
C           68.15       6.25        42.5        
S           66.61       5.94        44.5        
C           71.84       8.9         46.48       
C           70.66       8.39        47.02       
C           70.33       8.32        48.37       
C           71.3        8.8         49.22       
C           72.51       9.31        48.78       
C           72.79       9.45        47.42       
C           71.36       8.66        50.76       
C           72.55       9.53        51.09       
C           73.29       9.81        49.94       
C           71.99       8.6         44.98       
C           70.58       7.96        44.77       
C           69.85       7.79        45.96       
C           72.94       9.88        52.32       
C           74.24       10.42       52.5        
C           75.01       10.73       51.36       
C           74.58       10.46       50.05       
C           70.12       7.42        43.58       
C           68.81       6.93        43.6        
C           68.12       6.83        44.76       
C           68.64       7.14        45.98       
C           70.1        9.28        51.46       
C           71.67       7.24        51.26       
C           72.22       9.83        44.11       
C           72.94       7.47        44.69       
H           73.72       9.82        47.04       
H           69.35       7.93        48.77       
H           70.71       7.41        42.63       
H           68.01       6.94        46.86       
H           72.4        9.57        53.19       
H           75.14       10.8        49.21       
H           69.26       8.83        50.99       
H           70.15       9.06        52.49       
H           70.05695    10.34909    51.25192    
H           72.46       6.88        50.58       
H           71.97       7.28        52.24       
H           70.87106    6.50414     51.16889    
H           73.98       7.78        44.46       
H           72.64       6.95        43.77       
H           73.00183    6.68688     45.44564    
H           73.16       10.39       44.23       
H           72.37       9.55        43.1        
H           71.37298    10.51601    44.117      
H           74.56       10.35       54.63       
H           68.65       6.12        41.56       
S           76.63       11.28       51.86       
C           74.93       10.62       53.69       
C           76.15       11.24       53.59       
C           64.12       3.13        40.6        
C           65.33       3.52        39.95       
C           63.94       3.65        41.84       
N           65.76       3.15        38.74       
N           67.43       4.48        39.97       
S           67.18       3.94        38.46       
H           64.53       4.69        43.55       
H           62.99       3.51        42.41       
C           64.87       4.48        42.54       
C           66.27       4.34        40.71       
C           66.07       4.85        42.05       
C           49.36       -1.68       35.71       
C           49.64       -1.55       37.09       
S           50.78       -1.67       34.71       
C           55.47       -1.2        38.87       
C           55.26       -1.51       37.5        
C           56.23       -1.31       36.51       
C           57.4        -0.72       36.95       
C           57.62       -0.57       38.35       
C           56.66       -0.84       39.29       
C           58.69       -0.23       36.26       
C           59.48       0.37        37.36       
C           58.93       0.01        38.64       
C           54.14       -0.95       39.66       
C           53.18       -1.27       38.53       
C           53.84       -1.68       37.32       
C           60.66       1.04        37.3        
C           61.4        1.37        38.48       
C           60.81       1.02        39.7        
C           59.59       0.3         39.8        
C           51.79       -1.25       38.49       
C           51.1        -1.53       37.3        
C           51.81       -1.66       36.1        
C           53.2        -1.76       36.1        
C           59.47       -1.37       35.6        
C           58.41       0.92        35.21       
C           53.94       -1.95       40.83       
C           54.24       0.52        40.05       
H           56.9        -0.68       40.32       
H           56.13       -1.51       35.41       
H           51.26       -1.05       39.39       
H           53.83       -1.75       35.17       
H           60.96       1.59        36.37       
H           59.13       0.02        40.71       
H           59.39       -2.17       36.33       
H           60.53       -1.08       35.48       
H           59.08054    -1.71846    34.64344    
H           57.68       0.64        34.39       
H           59.31       1.14        34.66       
H           57.94825    1.82283     35.60973    
H           54.92       1.12        39.37       
H           54.78       0.61        40.97       
H           53.33227    1.03368     40.36665    
H           54.63       -1.72       41.66       
H           52.91       -1.96       41.23       
H           54.12225    -2.98743    40.54961    
H           63.17       2.66        38.04       
H           48.91       -1.51       37.8        
S           61.77       1.52        41.07       
C           62.6        2.15        38.76       
C           62.98       2.33        40.04       
C           45.94       -0.05       33.45       
C           45.87       -0.27       34.81       
C           47.03       -0.66       32.9        
N           44.99       0.24        35.61       
N           46.63       -0.93       36.98       
S           45.3        -0.03       37.18       
H           48.93       -1.57       33.03       
H           47.31       -0.49       31.82       
C           48.11       -1.2        33.68       
C           46.9        -0.87       35.63       
C           48.18       -1.3        35.02       
C           38.39       10.34       22.91       
C           39.6        9.71        22.66       
S           37.63       9.74        24.39       
C           41.53       5.06        26.24       
C           40.35       5.69        26.66       
C           39.77       5.25        27.84       
C           40.44       4.31        28.67       
C           41.63       3.7         28.19       
C           42.1        4.02        26.96       
C           40.09       3.83        30.08       
C           41.35       2.99        30.45       
C           42.17       2.95        29.3        
C           42.08       5.69        24.94       
C           40.98       6.79        24.68       
C           40.02       6.74        25.66       
C           41.73       2.32        31.61       
C           42.96       1.71        31.71       
C           43.78       1.65        30.57       
C           43.37       2.21        29.34       
C           40.94       7.65        23.62       
C           39.87       8.63        23.59       
C           38.88       8.59        24.57       
C           38.91       7.61        25.57       
C           39.9        5.06        31.03       
C           38.96       2.78        30.11       
C           43.4        6.44        25.12       
C           42.01       4.7         23.77       
H           42.98       3.53        26.58       
H           38.87       5.84        28.28       
H           41.72       7.6         22.88       
H           38.17       7.59        26.34       
H           41.08       2.27        32.42       
H           44.04       2.06        28.5        
H           39.0        5.57        30.69       
H           39.74       4.67        32.05       
H           40.75373    5.73734     31.00883    
H           39.17       1.89        29.55       
H           38.82       2.4         31.12       
H           38.03377    3.10524     29.63628    
H           42.16       5.26        22.84       
H           41.01       4.27        23.8        
H           42.82441    3.97608     23.74216    
H           44.14       5.71        25.15       
H           43.69       6.97        24.22       
H           43.4143     7.0836      25.99959    
H           43.19       0.92        33.87       
H           40.13       9.94        21.81       
S           45.27       0.82        30.92       
C           43.61       0.98        32.87       
C           44.89       0.61        32.6        
C           36.33       13.7        20.89       
C           35.64       12.44       21.13       
C           37.55       13.68       21.37       
N           34.32       12.19       20.86       
N           35.45       10.32       21.99       
S           33.96       10.7        21.49       
H           39.34       12.73       22.07       
H           38.17       14.52       21.11       
C           38.23       12.57       21.89       
C           36.26       11.37       21.84       
C           37.63       11.38       22.23       
C           26.17       26.15       22.09       
C           27.52       26.48       22.17       
S           25.95       24.81       20.99       
C           31.69       22.38       20.88       
C           30.54       22.21       20.2        
C           30.23       21.09       19.44       
C           31.2        20.09       19.38       
C           32.38       20.22       20.13       
C           32.61       21.35       20.91       
C           31.15       18.71       18.72       
C           32.48       18.12       19.17       
C           33.17       19.04       20.02       
C           31.78       23.83       21.4        
C           30.31       24.19       21.31       
C           29.63       23.25       20.59       
C           32.9        16.85       18.94       
C           34.04       16.42       19.59       
C           34.85       17.32       20.4        
C           34.42       18.64       20.62       
C           29.76       25.32       21.71       
C           28.37       25.44       21.7        
C           27.64       24.4        21.02       
C           28.29       23.33       20.36       
C           29.9        17.91       19.29       
C           31.14       18.82       17.23       
C           32.21       23.89       22.89       
C           32.66       24.71       20.44       
H           33.61       21.43       21.32       
H           29.27       20.82       18.97       
H           30.39       26.13       22.11       
H           27.76       22.54       19.84       
H           32.25       16.2        18.39       
H           34.92       19.32       21.23       
H           29.27       17.3        18.63       
H           29.2        18.69       19.53       
H           30.138      17.37099    20.20702    
H           30.24       19.36       16.92       
H           31.21       17.84       16.83       
H           32.02825    19.37157    16.92198    
H           32.43       25.74       20.65       
H           32.29       24.52       19.4        
H           33.72765    24.52843    20.56347    
H           32.27       24.91       23.26       
H           33.19       23.39       23.0        
H           31.56932    23.34084    23.57997    
H           34.18       14.28       19.01       
H           27.91       27.34       22.73       
S           36.32       16.5        20.93       
C           34.62       15.09       19.59       
C           35.71       14.99       20.33       
C           22.62       28.16       24.01       
C           23.62       28.9        23.38       
C           22.71       26.85       23.78       
N           23.63       30.25       23.43       
N           25.68       29.24       22.36       
S           24.93       30.67       22.53       
H           23.79       25.12       23.2        
H           21.88       26.24       24.1        
C           23.88       26.23       23.12       
C           24.83       28.29       22.72       
C           24.96       26.85       22.6        
C           18.17       39.82       33.63       
C           18.65       38.6        33.99       
S           17.58       39.83       31.98       
C           18.45       33.61       30.42       
C           18.19       34.81       29.76       
C           17.98       34.91       28.35       
C           18.17       33.75       27.59       
C           18.49       32.55       28.23       
C           18.55       32.44       29.59       
C           18.25       33.59       26.07       
C           18.52       32.11       25.95       
C           18.88       31.55       27.19       
C           18.92       33.87       31.85       
C           18.65       35.39       32.01       
C           18.16       35.88       30.81       
C           18.8        31.34       24.84       
C           19.65       30.23       25.01       
C           19.98       29.74       26.29       
C           19.54       30.36       27.46       
C           18.84       36.25       33.11       
C           18.5        37.62       32.94       
C           17.87       38.1        31.77       
C           17.67       37.21       30.69       
C           16.85       33.92       25.51       
C           19.39       34.41       25.39       
C           18.04       33.0        32.81       
C           20.46       33.64       32.06       
H           18.82       31.51       30.05       
H           17.75       35.86       27.92       
H           19.13       35.93       34.1        
H           17.29       37.62       29.75       
H           18.47       31.77       23.95       
H           19.95       30.1        28.43       
H           16.64       35.01       25.82       
H           16.78       33.92       24.4        
H           16.06483    33.27169    25.89898    
H           20.35       34.36       25.94       
H           19.57       33.89       24.46       
H           19.2057     35.48035    25.29785    
H           20.64       32.6        32.23       
H           20.91       34.28       32.84       
H           20.98797    33.79912    31.11977    
H           18.09       31.93       32.55       
H           18.45       33.04       33.8        
H           16.97527    33.23336    32.81       
H           20.62       29.98       22.93       
H           19.08       38.39       34.94       
S           21.21       28.5        26.31       
C           20.53       29.62       23.99       
C           21.44       28.75       24.58       
C           18.36       43.76       35.66       
C           18.84       42.55       36.34       
C           17.88       43.52       34.4        
N           19.2        42.47       37.64       
N           18.85       40.26       36.64       
S           19.44       40.89       38.04       
H           17.8        42.25       32.64       
H           17.51       44.35       33.84       
C           17.98       42.25       33.72       
C           18.66       41.22       35.76       
C           18.3        41.1        34.39       
C           25.5        58.4        35.34       
C           25.94       57.34       36.01       
S           24.0        57.95       34.49       
C           23.05       52.1        36.5        
C           22.4        53.09       35.78       
C           21.12       52.87       35.34       
C           20.63       51.6        35.44       
C           21.22       50.67       36.29       
C           22.47       50.85       36.7        
C           19.46       50.99       34.56       
C           19.26       49.7        35.4        
C           20.42       49.5        36.26       
C           24.38       52.54       37.07       
C           24.41       54.02       36.51       
C           23.25       54.25       35.73       
C           18.34       48.75       35.1        
C           18.53       47.49       35.7        
C           19.67       47.36       36.55       
C           20.6        48.32       36.87       
C           25.48       54.89       36.43       
C           25.12       56.15       35.92       
C           24.02       56.34       35.15       
C           23.0        55.38       35.01       
C           18.29       51.98       34.57       
C           19.98       50.54       33.15       
C           24.3        52.52       38.59       
C           25.61       51.73       36.51       
H           22.98       50.03       37.22       
H           20.59       53.69       34.81       
H           26.46       54.76       36.97       
H           22.17       55.64       34.41       
H           17.43       48.95       34.58       
H           21.46       48.0        37.55       
H           18.71       52.97       34.46       
H           17.69       51.68       33.73       
H           17.74688    51.92283    35.51332    
H           20.45       49.57       33.25       
H           19.11       50.36       32.53       
H           20.67164    51.23877    32.6794     
H           25.33       50.68       36.73       
H           26.59       51.97       36.97       
H           25.67399    51.70156    35.42225    
H           25.26       52.08       38.9        
H           23.37       52.04       38.96       
H           24.27899    53.50028    39.06614    
H           16.9        46.11       34.94       
H           26.91       57.38       36.53       
S           19.87       45.64       37.01       
C           17.79       46.22       35.57       
C           18.42       45.13       36.11       
C           27.17       62.38       35.7        
C           28.09       61.25       35.37       
C           25.82       62.1        35.54       
N           29.36       61.16       35.72       
N           28.41       58.97       35.02       
S           29.87       59.63       35.4        
H           24.17       60.69       35.36       
H           25.13       62.95       35.69       
C           25.25       60.8        35.27       
C           27.5        59.89       35.19       
C           26.04       59.7        35.13       
C           29.19       78.05       40.84       
C           28.11       77.26       41.2        
S           30.29       77.2        39.77       
C           27.51       71.52       39.09       
C           28.7        72.14       38.72       
C           29.62       71.53       37.83       
C           29.33       70.21       37.48       
C           28.21       69.53       37.98       
C           27.24       70.25       38.71       
C           30.13       69.24       36.56       
C           29.44       67.96       36.7        
C           28.22       68.17       37.49       
C           26.6        72.43       39.96       
C           27.44       73.71       39.97       
C           28.65       73.52       39.28       
C           29.74       66.66       36.3        
C           28.79       65.64       36.42       
C           27.58       65.94       37.12       
C           27.28       67.15       37.74       
C           27.09       74.93       40.58       
C           28.08       75.96       40.53       
C           29.29       75.73       39.86       
C           29.61       74.49       39.26       
C           30.06       69.9        35.15       
C           31.56       69.12       37.07       
C           25.19       72.66       39.36       
C           26.43       71.89       41.41       
H           26.36       69.75       39.07       
H           30.6        71.94       37.65       
H           26.14       75.07       41.05       
H           30.54       74.36       38.78       
H           30.64       66.47       35.75       
H           26.35       67.4        38.29       
H           31.04       69.66       34.73       
H           30.15       71.0        35.06       
H           29.29392    69.5277     34.46984    
H           31.91       70.14       37.47       
H           32.18       68.76       36.23       
H           31.60955    68.56082    38.00433    
H           25.52       71.37       41.65       
H           26.48       72.75       42.11       
H           27.31206    71.37604    41.79199    
H           24.46       72.69       40.19       
H           24.81       71.68       38.9        
H           25.03204    73.52879    38.72097    
H           29.44       63.89       35.07       
H           27.28       77.57       41.82       
S           26.66       64.53       37.3        
C           28.71       64.33       35.82       
C           27.57       63.7        36.09       
C           29.35       82.45       41.3        
C           28.75       81.6        42.34       
C           30.08       81.73       40.36       
N           28.02       82.05       43.29       
N           28.11       79.59       43.3        
S           27.53       80.78       44.19       
H           30.51       79.82       39.43       
H           30.67       82.15       39.61       
C           30.08       80.26       40.33       
C           28.78       80.16       42.3        
C           29.45       79.49       41.2        
C           23.99       95.63       33.38       
C           23.27       94.93       34.25       
S           25.69       95.35       33.64       
C           25.56       90.97       38.25       
C           26.47       91.68       37.52       
C           27.81       91.39       37.65       
C           28.23       90.35       38.44       
C           27.24       89.56       39.09       
C           25.88       89.89       39.04       
C           29.64       89.68       38.65       
C           29.25       88.4        39.38       
C           27.85       88.45       39.75       
C           24.2        91.45       37.91       
C           24.45       92.64       36.99       
C           25.8        92.58       36.62       
C           30.03       87.33       39.67       
C           29.49       86.13       40.23       
C           28.14       86.21       40.65       
C           27.29       87.35       40.44       
C           23.61       93.35       36.27       
C           24.04       94.15       35.18       
C           25.45       94.23       34.96       
C           26.32       93.46       35.67       
C           30.33       89.35       37.33       
C           30.53       90.5        39.64       
C           23.37       90.43       37.15       
C           23.41       91.91       39.16       
H           25.1        89.24       39.4        
H           28.51       92.03       37.09       
H           22.52       93.26       36.42       
H           27.34       93.43       35.35       
H           31.03       87.38       39.36       
H           26.26       87.28       40.78       
H           30.52       90.23       36.71       
H           31.39       89.06       37.64       
H           29.91054    88.49686    36.79679    
H           30.02       90.67       40.6        
H           31.55       90.0        39.84       
H           30.78971    91.5244     39.37308    
H           23.4        91.18       39.93       
H           22.37       92.15       38.97       
H           23.71072    92.88375    39.54663    
H           22.99       89.7        37.85       
H           22.48       90.94       36.72       
H           23.94528    89.91154    36.38296    
H           31.15       84.63       40.55       
H           22.14       94.98       34.24       
S           27.67       84.58       41.26       
C           30.12       84.88       40.69       
C           29.28       83.89       41.14       
C           22.69       98.79       30.59       
C           23.83       98.02       30.37       
C           21.89       98.36       31.65       
N           24.7        98.26       29.34       
N           25.36       96.42       30.74       
S           25.71       96.98       29.2        
H           21.68       97.04       33.41       
H           20.99       98.88       31.95       
C           22.35       97.25       32.57       
C           24.25       96.92       31.2        
C           23.52       96.63       32.4        
C           17.27       113.22      24.3        
C           16.47       112.27      24.88       
S           18.91       112.6       24.27       
C           18.28       106.68      26.66       
C           19.28       107.56      26.0        
C           20.62       107.18      25.83       
C           20.97       105.89      26.31       
C           20.0        105.09      26.99       
C           18.64       105.42      27.18       
C           22.38       105.32      26.57       
C           22.04       104.01      27.27       
C           20.65       103.92      27.5        
C           16.91       107.41      26.68       
C           17.26       108.73      25.96       
C           18.6        108.77      25.6        
C           22.93       103.0       27.66       
C           22.44       101.97      28.51       
C           21.08       101.85      28.72       
C           20.16       102.79      28.17       
C           16.44       109.79      25.68       
C           17.08       111.0       25.22       
C           18.48       111.01      24.91       
C           19.22       109.87      25.08       
C           23.16       105.0       25.28       
C           23.25       105.99      27.7        
C           15.83       106.58      25.86       
C           16.34       107.79      28.08       
H           17.93       104.79      27.55       
H           21.32       107.72      25.26       
H           15.36       109.74      25.76       
H           20.26       109.82      24.75       
H           23.97       103.03      27.36       
H           19.09       102.72      28.37       
H           23.56       105.98      24.87       
H           24.07       104.38      25.56       
H           22.50906    104.45032   24.60013    
H           22.79       105.71      28.66       
H           24.23       105.51      27.87       
H           23.35221    107.06324   27.53938    
H           15.31       108.15      27.89       
H           16.98       108.54      28.51       
H           16.19733    106.94827   28.75767    
H           14.88       107.07      25.99       
H           15.8        105.62      26.36       
H           16.03803    106.59486   24.79014    
H           24.18       100.67      29.1        
H           15.44       112.56      25.08       
S           20.66       100.4       29.67       
C           23.12       100.87      29.15       
C           22.35       99.94       29.84       
C           16.69       117.47      23.09       
C           15.74       116.75      23.8        
C           17.68       116.63      22.68       
N           14.64       117.34      24.22       
N           14.87       114.97      25.08       
S           13.85       116.23      25.1        
H           18.77       114.78      22.73       
H           18.54       117.02      22.07       
C           17.86       115.31      23.13       
C           15.87       115.38      24.24       
C           17.06       114.59      23.89       
H           89.84       0.88        66.55       
H           16.48       118.48      22.69       
