612

C           13.9        1.73        39.8        
C           13.65       1.37        41.08       
S           12.54       2.49        38.99       
C           8.28        2.23        43.69       
C           8.23        2.34        42.33       
C           7.03        2.69        41.7        
C           5.86        2.85        42.38       
C           5.9         2.68        43.77       
C           7.06        2.23        44.38       
C           4.45        3.18        41.94       
C           3.75        3.39        43.29       
C           4.55        2.82        44.32       
C           9.56        1.66        44.13       
C           10.43       1.8         42.91       
C           9.64        2.28        41.89       
C           2.43        3.82        43.55       
C           1.94        3.61        44.85       
C           2.8         3.17        45.86       
C           4.13        2.72        45.65       
C           11.75       1.42        42.79       
C           12.33       1.64        41.53       
C           11.58       2.24        40.43       
C           10.21       2.56        40.58       
C           4.45        4.55        41.18       
C           3.67        2.15        41.12       
C           10.32       2.47        45.23       
C           9.28        0.11        44.49       
H           6.97        1.96        45.38       
H           6.98        3.02        40.62       
H           12.26       0.92        43.63       
H           9.67        3.0         39.72       
H           1.83        4.24        42.76       
H           4.78        2.44        46.48       
H           4.86        4.34        40.25       
H           3.4         4.97        41.16       
H           4.98892     5.32925     41.71892    
H           3.47        1.25        41.77       
H           2.66        2.5         40.83       
H           4.24703     1.78154     40.27184    
H           10.13       -0.45       44.1        
H           8.37        -0.19       43.97       
H           9.29383     -0.15272    45.54778    
H           9.56        2.43        46.02       
H           11.23       2.05        45.67       
H           10.6686     3.44466     44.88851    
H           -0.08       4.33        44.62       
H           14.4        0.96        41.7        
S           1.9         3.14        47.36       
C           0.65        3.98        45.32       
C           0.46        3.77        46.62       
C           17.61       1.63        37.31       
C           16.53       0.7         37.11       
C           17.34       2.51        38.37       
N           16.46       -0.36       36.34       
N           14.54       -0.31       37.78       
S           14.94       -1.04       36.43       
H           16.04       3.24        40.03       
H           18.08       3.31        38.52       
C           16.18       2.46        39.27       
C           15.38       0.7         38.03       
C           15.19       1.6         39.09       
C           31.84       5.05        29.19       
C           31.34       5.85        30.2        
S           30.88       3.56        29.04       
C           26.09       4.62        33.19       
C           26.58       3.56        32.36       
C           25.92       2.32        32.19       
C           24.71       2.15        32.94       
C           24.19       3.21        33.79       
C           24.89       4.45        33.87       
C           23.79       0.92        32.93       
C           22.79       1.3         34.07       
C           22.93       2.7         34.39       
C           27.16       5.7         33.26       
C           28.12       5.29        32.15       
C           27.8        4.0         31.66       
C           21.81       0.63        34.64       
C           20.85       1.29        35.39       
C           20.98       2.66        35.71       
C           22.06       3.42        35.25       
C           29.27       6.0         31.67       
C           30.15       5.32        30.8        
C           29.77       4.05        30.29       
C           28.66       3.37        30.74       
C           23.09       0.76        31.48       
C           24.56       -0.37       33.35       
C           26.49       7.11        32.95       
C           27.99       5.62        34.51       
H           24.78       5.06        34.71       
H           26.19       1.54        31.43       
H           29.52       6.97        32.05       
H           28.38       2.42        30.25       
H           21.57       -0.48       34.58       
H           22.05       4.46        35.25       
H           22.83       -0.3        31.37       
H           23.95       0.94        30.79       
H           22.24744    1.44413     31.37918    
H           25.45       -0.58       32.71       
H           23.9        -1.18       33.39       
H           25.00685    -0.18847    34.32748    
H           28.84       6.33        34.38       
H           28.26       4.56        34.76       
H           27.50793    5.94611     35.43161    
H           25.75       7.26        33.67       
H           27.21       7.89        33.11       
H           26.02346    7.18069     31.96743    
H           19.23       -0.2        35.86       
H           31.61       6.86        30.28       
S           19.6        3.23        36.58       
C           19.57       0.8         35.91       
C           18.88       1.66        36.66       
C           34.94       5.35        26.02       
C           34.5        6.55        26.78       
C           34.35       4.21        26.35       
N           35.03       7.79        26.63       
N           33.12       7.71        28.33       
S           34.14       8.75        27.6        
H           33.09       3.21        27.7        
H           34.64       3.27        25.91       
C           33.38       4.23        27.41       
C           33.44       6.49        27.82       
C           32.92       5.2         28.23       
C           40.17       1.74        11.56       
C           40.8        1.11        12.66       
S           39.46       3.28        11.86       
C           40.43       3.41        18.19       
C           39.79       4.13        17.21       
C           38.98       5.22        17.45       
C           38.72       5.45        18.78       
C           39.32       4.69        19.78       
C           40.22       3.74        19.48       
C           38.02       6.68        19.34       
C           38.08       6.36        20.79       
C           38.78       5.13        21.09       
C           41.17       2.22        17.57       
C           40.83       2.47        16.1        
C           40.04       3.58        15.88       
C           37.22       6.87        21.76       
C           37.11       6.15        22.93       
C           37.85       5.01        23.21       
C           38.73       4.5         22.32       
C           41.03       1.57        15.09       
C           40.63       1.92        13.81       
C           39.96       3.13        13.55       
C           39.55       3.99        14.63       
C           39.0        7.79        18.94       
C           36.6        6.81        18.72       
C           42.73       2.41        17.75       
C           40.65       0.89        18.09       
H           40.59       3.16        20.32       
H           38.51       5.8         16.67       
H           41.65       0.76        15.29       
H           38.87       4.86        14.4        
H           36.59       7.68        21.45       
H           39.2        3.55        22.43       
H           38.98       7.76        17.85       
H           39.9        7.69        19.48       
H           38.73165    8.7857      19.29309    
H           36.79       6.75        17.63       
H           36.13       7.74        18.83       
H           35.93162    5.99387     18.99439    
H           40.59       0.13        17.29       
H           39.62       1.03        18.34       
H           41.14753    0.50459     18.97995    
H           43.03       2.51        18.79       
H           43.1        1.5         17.31       
H           43.13628    3.29383     17.25819    
H           35.54       7.27        23.91       
H           41.19       0.09        12.58       
S           37.29       4.3         24.77       
C           36.18       6.47        24.03       
C           36.0        5.48        24.93       
C           39.56       -0.04       7.58        
C           40.79       -0.26       8.32        
C           38.76       0.92        8.1         
N           41.82       -1.07       7.96        
N           42.21       0.08        10.04       
S           42.82       -1.15       9.19        
H           38.13       2.06        9.76        
H           37.84       1.27        7.56        
C           38.95       1.5         9.36        
C           41.03       0.37        9.53        
C           40.04       1.26        10.15       
C           32.25       -8.33       -4.9        
C           31.6        -7.84       -3.78       
S           33.92       -8.36       -4.66       
C           34.62       -4.93       0.71        
C           35.43       -5.55       -0.24       
C           36.82       -5.44       -0.17       
C           37.31       -4.65       0.85        
C           36.5        -4.09       1.84        
C           35.13       -4.26       1.74        
C           38.79       -4.42       1.22        
C           38.59       -3.36       2.36        
C           37.25       -3.14       2.71        
C           33.12       -5.32       0.49        
C           33.2        -6.07       -0.89       
C           34.57       -6.31       -1.21       
C           39.5        -2.73       3.19        
C           39.07       -2.0        4.32        
C           37.65       -1.88       4.6         
C           36.75       -2.41       3.72        
C           32.16       -6.66       -1.53       
C           32.45       -7.3        -2.76       
C           33.8        -7.45       -3.16       
C           34.87       -7.03       -2.33       
C           39.44       -5.76       1.59        
C           39.59       -3.76       0.07        
C           32.55       -6.3        1.51        
C           32.1        -4.15       0.25        
H           34.49       -3.76       2.43        
H           37.47       -5.83       -0.94       
H           31.12       -6.39       -1.42       
H           35.88       -7.12       -2.71       
H           40.49       -2.59       2.91        
H           35.71       -2.36       3.87        
H           39.9        -6.24       0.73        
H           38.62       -6.48       1.84        
H           40.1547     -5.76       2.41299     
H           39.59       -4.55       -0.76       
H           40.58       -3.53       0.35        
H           39.12072    -2.87047    -0.35025    
H           31.48       -4.04       1.16        
H           31.46       -4.27       -0.65       
H           32.57536    -3.19927    0.00866     
H           32.47       -5.83       2.53        
H           31.49       -6.34       1.26        
H           33.0337     -7.2674     1.64515     
H           40.88       -1.34       5.39        
H           30.52       -7.93       -3.66       
S           37.39       -1.11       6.16        
C           39.85       -1.4        5.4         
C           39.1        -0.75       6.36        
C           30.42       -10.64      -8.13       
C           29.57       -9.67       -7.47       
C           31.72       -10.77      -7.76       
N           28.28       -9.34       -7.64       
N           29.35       -7.98       -5.87       
S           27.83       -8.25       -6.54       
H           33.44       -10.21      -6.64       
H           32.35       -11.46      -8.28       
C           32.37       -10.02      -6.78       
C           30.26       -8.87       -6.46       
C           31.68       -9.05       -6.07       
C           23.87       -18.51      -21.2       
C           23.73       -17.19      -20.93      
S           24.53       -19.28      -19.79      
C           25.79       -14.33      -16.0       
C           26.13       -15.7       -16.1       
C           26.9        -16.39      -15.13      
C           27.47       -15.58      -14.18      
C           27.08       -14.22      -14.01      
C           26.25       -13.59      -14.89      
C           28.2        -16.1       -12.98      
C           28.59       -14.77      -12.26      
C           27.78       -13.74      -12.8       
C           25.24       -13.86      -17.32      
C           24.81       -15.19      -17.97      
C           25.35       -16.27      -17.18      
C           29.47       -14.51      -11.2       
C           29.41       -13.26      -10.57      
C           28.47       -12.33      -11.1       
C           27.76       -12.48      -12.23      
C           24.15       -15.42      -19.17      
C           24.14       -16.76      -19.66      
C           24.58       -17.8       -18.81      
C           25.23       -17.62      -17.55      
C           27.31       -17.03      -12.09      
C           29.44       -16.85      -13.46      
C           23.97       -12.95      -17.27      
C           26.38       -13.06      -17.97      
H           25.92       -12.55      -14.73      
H           27.28       -17.38      -15.27      
H           23.71       -14.61      -19.8       
H           25.69       -18.4       -16.94      
H           30.22       -15.25      -10.87      
H           27.15       -11.66      -12.58      
H           27.55       -17.97      -12.45      
H           26.3        -16.87      -12.35      
H           27.43563    -16.81363   -11.0291    
H           29.23       -17.77      -13.99      
H           30.08       -17.11      -12.65      
H           30.09255    -16.19745   -14.04005   
H           26.5        -12.18      -17.26      
H           27.28       -13.7       -18.03      
H           26.12149    -12.65069   -18.9466    
H           23.61       -12.54      -18.24      
H           24.22       -12.09      -16.62      
H           23.16256    -13.4301    -16.71716   
H           31.03       -13.16      -9.03       
H           23.24       -16.5       -21.6       
S           28.68       -10.84      -10.25      
C           30.22       -12.71      -9.5        
C           29.91       -11.42      -9.21       
C           24.09       -20.27      -25.2       
C           23.1        -19.31      -24.91      
C           24.73       -20.69      -24.11      
N           22.14       -18.88      -25.76      
N           21.96       -17.83      -23.5       
S           21.2        -17.83      -24.95      
H           25.39       -20.51      -22.0       
H           25.36       -21.51      -24.25      
C           24.64       -20.19      -22.78      
C           22.89       -18.8       -23.57      
C           23.69       -19.28      -22.42      
C           32.71       -20.99      -39.19      
C           32.09       -19.93      -38.72      
S           32.08       -22.48      -38.54      
C           28.05       -20.06      -34.26      
C           28.52       -21.33      -34.61      
C           28.2        -22.45      -33.85      
C           27.4        -22.26      -32.71      
C           26.96       -21.0       -32.33      
C           27.24       -19.87      -33.14      
C           26.82       -23.36      -31.78      
C           26.34       -22.43      -30.64      
C           26.28       -21.06      -31.04      
C           28.62       -18.94      -35.12      
C           29.5        -19.77      -36.05      
C           29.45       -21.13      -35.69      
C           25.76       -22.69      -29.42      
C           25.34       -21.66      -28.52      
C           25.22       -20.37      -29.01      
C           25.64       -20.06      -30.34      
C           30.36       -19.29      -37.03      
C           31.09       -20.19      -37.77      
C           31.07       -21.57      -37.47      
C           30.23       -22.09      -36.47      
C           25.59       -24.07      -32.54      
C           27.87       -24.35      -31.3       
C           27.37       -18.26      -35.8       
C           29.4        -17.92      -34.16      
H           26.89       -18.88      -32.89      
H           28.63       -23.44      -34.03      
H           30.42       -18.24      -37.34      
H           30.14       -23.11      -36.3       
H           25.68       -23.7       -29.05      
H           25.57       -19.02      -30.66      
H           26.04       -24.52      -33.49      
H           25.0        -23.16      -32.76      
H           25.04217    -24.79804   -31.94171   
H           28.5        -24.58      -32.18      
H           27.48       -25.32      -30.97      
H           28.46823    -23.9227    -30.49524   
H           28.71       -17.25      -33.63      
H           29.87       -18.5       -33.5       
H           30.06504    -17.21251   -34.65525   
H           26.78       -17.77      -35.0       
H           27.7        -17.44      -36.49      
H           26.84668    -18.95049   -36.46141   
H           25.0        -22.7       -26.62      
H           32.38       -18.98      -39.08      
S           24.52       -19.35      -27.72      
C           25.01       -21.8       -27.13      
C           24.45       -20.66      -26.54      
C           35.52       -21.45      -42.57      
C           34.55       -20.33      -42.54      
C           35.42       -22.2       -41.47      
N           34.48       -19.39      -43.44      
N           32.76       -19.2       -41.77      
S           33.07       -18.59      -43.3       
H           34.69       -22.62      -39.45      
H           36.11       -23.05      -41.37      
C           34.56       -21.98      -40.35      
C           33.56       -20.22      -41.49      
C           33.54       -21.09      -40.36      
C           44.7        -27.04      -54.9       
C           44.95       -27.51      -53.63      
S           43.97       -25.45      -54.85      
C           42.6        -24.75      -48.68      
C           42.47       -24.05      -49.86      
C           41.58       -23.03      -50.05      
C           40.73       -22.59      -48.98      
C           40.94       -23.24      -47.73      
C           41.88       -24.27      -47.57      
C           39.7        -21.49      -48.94      
C           39.3        -21.52      -47.45      
C           39.96       -22.64      -46.8       
C           43.53       -26.0       -48.85      
C           43.88       -25.9       -50.39      
C           43.17       -24.79      -50.91      
C           38.29       -20.82      -46.88      
C           37.75       -21.41      -45.66      
C           38.4        -22.52      -45.0       
C           39.52       -23.13      -45.6       
C           44.54       -26.81      -51.16      
C           44.42       -26.71      -52.57      
C           43.72       -25.59      -53.12      
C           43.07       -24.62      -52.29      
C           40.28       -20.1       -49.41      
C           38.57       -21.82      -49.87      
C           44.73       -25.79      -47.93      
C           42.65       -27.16      -48.51      
H           41.97       -24.83      -46.62      
H           41.37       -22.64      -51.03      
H           45.16       -27.55      -50.69      
H           42.62       -23.74      -52.69      
H           37.68       -20.08      -47.38      
H           40.01       -23.98      -45.14      
H           40.4        -20.23      -50.47      
H           41.24       -19.87      -49.08      
H           39.63702    -19.23338   -49.25624   
H           39.0        -21.92      -50.9       
H           37.92       -20.99      -49.95      
H           38.0703     -22.74901   -49.59552   
H           42.1        -26.92      -47.6       
H           41.87       -27.29      -49.28      
H           43.15988    -28.11689   -48.39825   
H           44.93       -26.71      -47.31      
H           44.45       -24.94      -47.29      
H           45.61491    -25.51391   -48.50342   
H           36.03       -20.13      -45.21      
H           45.65       -28.33      -53.43      
S           37.64       -22.89      -43.47      
C           36.63       -20.96      -44.87      
C           36.43       -21.64      -43.67      
C           45.38       -28.61      -59.02      
C           45.83       -29.37      -57.89      
C           44.97       -27.35      -58.76      
N           46.3        -30.64      -57.91      
N           45.95       -29.77      -55.58      
S           46.55       -31.1       -56.37      
H           44.23       -25.86      -57.47      
H           44.76       -26.65      -59.57      
C           44.76       -26.84      -57.39      
C           45.7        -28.85      -56.49      
C           45.1        -27.55      -56.25      
C           48.99       -31.37      -74.94      
C           47.79       -30.85      -74.6       
S           50.02       -31.4       -73.56      
C           46.19       -29.37      -68.89      
C           47.44       -29.94      -69.1       
C           48.32       -30.27      -68.11      
C           47.88       -30.03      -66.82      
C           46.57       -29.59      -66.51      
C           45.73       -29.19      -67.57      
C           48.71       -30.27      -65.56      
C           47.66       -30.01      -64.51      
C           46.4        -29.61      -65.05      
C           45.48       -29.29      -70.29      
C           46.5        -29.86      -71.23      
C           47.69       -30.12      -70.49      
C           47.82       -30.04      -63.18      
C           46.78       -29.58      -62.37      
C           45.6        -29.06      -62.93      
C           45.32       -29.1       -64.33      
C           46.47       -30.0       -72.56      
C           47.61       -30.52      -73.25      
C           48.77       -30.78      -72.48      
C           48.82       -30.58      -71.12      
C           49.33       -31.78      -65.62      
C           49.84       -29.29      -65.48      
C           44.16       -30.04      -70.31      
C           45.24       -27.85      -70.75      
H           44.81       -28.67      -67.32      
H           49.15       -30.91      -68.25      
H           45.55       -29.9       -73.1       
H           49.72       -30.76      -70.6       
H           48.77       -30.39      -62.73      
H           44.46       -28.62      -64.7       
H           50.21       -31.77      -66.25      
H           48.58       -32.47      -66.14      
H           49.48574    -32.342     -64.69913   
H           50.54       -29.64      -66.24      
H           50.29       -29.35      -64.44      
H           49.51335    -28.2614    -65.6329    
H           44.1        -27.69      -70.86      
H           45.63       -27.61      -71.75      
H           45.64206    -27.18948   -69.98178   
H           43.48       -29.82      -71.18      
H           43.63       -29.66      -69.42      
H           44.30929    -31.11896   -70.26928   
H           47.66       -29.81      -60.37      
H           46.96       -30.8       -75.27      
S           44.54       -28.46      -61.66      
C           46.76       -29.56      -60.92      
C           45.64       -29.06      -60.38      
C           50.83       -32.7       -78.75      
C           49.55       -32.13      -78.69      
C           51.41       -32.89      -77.53      
N           48.79       -31.96      -79.78      
N           47.65       -31.22      -77.71      
S           47.42       -31.26      -79.34      
H           51.38       -32.52      -75.41      
H           52.32       -33.37      -77.34      
C           50.81       -32.34      -76.31      
C           48.86       -31.67      -77.5       
C           49.51       -31.85      -76.21      
C           60.73       -40.58      -89.65      
C           61.07       -40.12      -88.45      
S           59.0        -40.49      -89.8       
C           57.43       -37.08      -84.6       
C           56.86       -37.63      -85.75      
C           55.54       -37.29      -86.07      
C           54.79       -36.64      -85.1       
C           55.35       -36.03      -83.99      
C           56.64       -36.3       -83.74      
C           53.22       -36.35      -85.0       
C           53.11       -35.43      -83.79      
C           54.37       -35.27      -83.22      
C           58.9        -37.53      -84.49      
C           59.07       -38.33      -85.81      
C           57.86       -38.37      -86.5       
C           51.97       -34.97      -83.13      
C           52.09       -34.44      -81.84      
C           53.38       -34.19      -81.34      
C           54.55       -34.6       -82.0       
C           60.15       -38.87      -86.42      
C           60.06       -39.46      -87.67      
C           58.86       -39.53      -88.3       
C           57.74       -38.99      -87.73      
C           52.58       -35.66      -86.23      
C           52.36       -37.59      -84.63      
C           59.79       -36.3       -84.29      
C           59.25       -38.64      -83.45      
H           57.14       -36.02      -82.82      
H           55.06       -37.75      -86.9       
H           61.07       -38.93      -85.85      
H           56.79       -39.08      -88.29      
H           50.98       -35.14      -83.64      
H           55.54       -34.52      -81.53      
H           52.66       -36.28      -87.09      
H           51.59       -35.45      -86.02      
H           52.9646     -34.65577   -86.40806   
H           52.51       -37.76      -83.51      
H           51.33       -37.41      -84.75      
H           52.64943    -38.4936    -85.16651   
H           60.35       -38.48      -83.34      
H           59.01       -39.62      -83.86      
H           58.70173    -38.57592   -82.51011   
H           60.61       -36.5       -83.63      
H           59.15       -35.62      -83.89      
H           60.22153    -35.84652   -85.18232   
H           49.95       -33.97      -81.28      
H           62.13       -40.25      -88.11      
S           53.29       -33.23      -79.87      
C           51.04       -33.91      -81.02      
C           51.52       -33.34      -79.89      
C           62.95       -42.12      -93.22      
C           63.66       -41.59      -92.08      
C           61.6        -42.25      -92.96      
N           64.94       -41.38      -91.96      
N           63.76       -40.59      -90.01      
S           65.32       -40.6       -90.58      
H           59.81       -42.1       -91.83      
H           61.0        -42.71      -93.71      
C           60.87       -41.86      -91.79      
C           62.93       -41.12      -90.9       
C           61.48       -41.19      -90.74      
C           67.43       -47.66      -108.24     
C           66.23       -47.81      -107.67     
S           68.56       -46.84      -107.09     
C           64.86       -46.69      -101.92     
C           66.15       -46.3       -102.3      
C           66.98       -45.54      -101.47     
C           66.48       -45.1       -100.2      
C           65.18       -45.41      -99.86      
C           64.4        -46.29      -100.64     
C           67.31       -44.43      -99.09      
C           66.15       -44.13      -98.21      
C           64.88       -44.64      -98.67      
C           63.99       -47.16      -103.09     
C           65.12       -47.2       -104.14     
C           66.33       -46.7       -103.69     
C           66.16       -43.4       -97.02      
C           64.94       -43.22      -96.3       
C           63.78       -43.81      -96.77      
C           63.67       -44.41      -98.05      
C           65.02       -47.54      -105.46     
C           66.17       -47.42      -106.32     
C           67.36       -46.89      -105.82     
C           67.53       -46.54      -104.49     
C           68.26       -45.53      -98.49      
C           68.05       -43.15      -99.6       
C           63.3        -48.53      -102.88     
C           62.97       -46.09      -103.6      
H           63.36       -46.51      -100.28     
H           67.98       -45.39      -101.78     
H           64.11       -47.9       -105.85     
H           68.43       -46.18      -104.08     
H           67.12       -43.08      -96.63      
H           62.73       -44.77      -98.46      
H           69.32       -45.24      -98.37      
H           68.24       -46.27      -99.24      
H           67.89239    -46.07061   -97.61782   
H           69.02       -43.39      -100.08     
H           68.35       -42.55      -98.73      
H           67.51132    -42.46247   -100.25209  
H           62.18       -46.62      -104.02     
H           63.42       -45.43      -104.26     
H           62.41891    -45.5246    -102.84852  
H           62.68       -48.46      -101.98     
H           62.73       -48.83      -103.77     
H           63.9737     -49.31007   -102.52542  
H           65.64       -42.01      -94.49      
H           65.39       -48.12      -108.27     
S           62.49       -43.49      -95.59      
C           64.82       -42.53      -94.99      
C           63.55       -42.58      -94.48      
C           68.82       -48.76      -112.29     
C           67.6        -49.2       -111.82     
C           69.56       -47.95      -111.39     
N           66.86       -50.04      -112.59     
N           65.9        -49.35      -110.31     
S           65.42       -50.1       -111.73     
H           69.82       -47.28      -109.42     
H           70.62       -47.81      -111.62     
C           69.06       -47.67      -110.09     
C           67.1        -48.82      -110.55     
C           67.85       -47.99      -109.59     
H           -0.36       4.1         47.19       
H           69.06       -48.9       -113.32     
