612

C           50.9        45.77       6.58        
C           49.93       44.84       6.98        
S           51.66       45.19       5.12        
C           48.06       39.88       3.89        
C           49.03       40.76       3.2         
C           49.45       40.44       1.89        
C           48.73       39.48       1.16        
C           47.67       38.71       1.82        
C           47.45       38.86       3.22        
C           48.88       39.05       -0.28       
C           47.66       38.15       -0.34       
C           46.97       37.87       0.88        
C           47.75       40.45       5.24        
C           48.77       41.62       5.29        
C           49.58       41.74       4.12        
C           47.16       37.45       -1.44       
C           46.0        36.6        -1.38       
C           45.37       36.44       -0.16       
C           45.89       37.04       1.01        
C           48.88       42.55       6.29        
C           49.78       43.67       6.1         
C           50.61       43.72       5.03        
C           50.49       42.79       3.98        
C           48.68       40.25       -1.23       
C           50.09       38.11       -0.62       
C           46.34       40.98       5.16        
C           47.82       39.5        6.38        
H           46.64       38.37       3.71        
H           50.28       40.96       1.44        
H           48.23       42.45       7.13        
H           50.98       42.97       3.05        
H           47.76       37.62       -2.33       
H           45.4        36.99       1.98        
H           49.68       40.67       -1.51       
H           48.29       39.85       -2.24       
H           48.03739    41.06397    -0.89442    
H           49.83       37.18       -0.17       
H           50.11       37.68       -1.62       
H           51.07345    38.51495    -0.38137    
H           46.92       38.95       6.56        
H           47.94       40.13       7.24        
H           48.72908    38.89861    6.38        
H           45.6        40.3        4.76        
H           46.0        41.17       6.22        
H           46.19199    41.8328     4.49749     
H           45.61       35.95       -3.46       
H           49.38       44.94       7.89        
S           43.94       35.36       -0.28       
C           45.31       35.91       -2.37       
C           44.25       35.17       -1.96       
C           51.77       50.04       7.56        
C           50.59       49.41       8.01        
C           52.61       49.19       6.86        
N           49.5        49.98       8.66        
N           49.17       47.51       8.23        
S           48.39       48.78       8.89        
H           53.18       47.23       6.08        
H           53.57       49.57       6.5         
C           52.38       47.77       6.66        
C           50.32       47.98       7.72        
C           51.25       47.11       7.04        
C           55.12       66.26       5.3         
C           55.94       65.22       5.1         
S           53.49       65.73       5.7         
C           54.51       59.39       6.05        
C           53.41       60.29       6.31        
C           52.19       59.73       6.59        
C           52.1        58.39       6.91        
C           53.16       57.53       6.74        
C           54.33       58.04       6.26        
C           50.9        57.61       7.36        
C           51.54       56.21       7.67        
C           52.8        56.18       7.04        
C           55.73       60.13       5.57        
C           55.26       61.6        5.7         
C           53.88       61.7        6.07        
C           50.88       55.07       8.05        
C           51.58       53.84       7.74        
C           52.85       53.82       7.14        
C           53.51       54.97       6.79        
C           56.05       62.73       5.43        
C           55.41       63.91       5.42        
C           54.03       64.08       5.81        
C           53.2        62.95       6.13        
C           50.4        58.32       8.67        
C           49.73       57.44       6.29        
C           57.02       59.84       6.47        
C           56.14       59.91       4.03        
H           55.1        57.33       5.88        
H           51.36       60.36       6.81        
H           57.1        62.67       5.19        
H           52.21       63.03       6.45        
H           49.85       55.06       8.42        
H           54.48       54.95       6.37        
H           50.25       59.37       8.45        
H           49.42       57.93       8.97        
H           51.09665    58.2573     9.50597     
H           50.05       57.07       5.36        
H           49.16       56.62       6.66        
H           49.19278    58.366      6.08501     
H           57.1        59.32       4.02        
H           56.13       60.83       3.41        
H           55.44636    59.31545    3.43545     
H           57.47       58.85       6.29        
H           57.85       60.56       6.27        
H           56.83263    59.84721    7.54375     
H           50.15       52.35       8.37        
H           56.97       65.39       4.86        
S           53.41       52.18       6.9         
C           51.1        52.49       7.95        
C           51.93       51.52       7.57        
C           55.55       70.43       3.85        
C           56.68       69.61       4.21        
C           54.33       69.84       4.17        
N           57.96       70.04       3.92        
N           57.77       67.57       4.48        
S           58.88       68.73       4.21        
H           53.25       68.11       5.08        
H           53.41       70.43       4.18        
C           54.23       68.49       4.65        
C           56.62       68.19       4.54        
C           55.33       67.61       4.84        
C           58.59       79.89       -8.48       
C           57.34       79.34       -8.38       
S           59.01       80.42       -6.88       
C           55.17       77.02       -3.2        
C           56.23       77.92       -3.02       
C           57.07       77.98       -1.91       
C           56.73       77.16       -0.81       
C           55.66       76.27       -0.97       
C           54.86       76.18       -2.13       
C           57.52       76.93       0.46        
C           56.79       75.68       1.02        
C           55.64       75.47       0.25        
C           54.64       77.04       -4.7        
C           55.59       78.03       -5.31       
C           56.51       78.57       -4.36       
C           57.08       74.98       2.14        
C           56.25       73.84       2.37        
C           55.18       73.63       1.59        
C           54.89       74.38       0.49        
C           55.68       78.32       -6.69       
C           56.87       79.04       -7.1        
C           57.71       79.56       -6.08       
C           57.51       79.43       -4.79       
C           59.02       76.75       0.26        
C           57.13       78.11       1.38        
C           54.69       75.65       -5.38       
C           53.21       77.63       -4.77       
H           54.05       75.45       -2.23       
H           57.87       78.71       -1.81       
H           54.98       78.02       -7.42       
H           58.24       79.7        -4.07       
H           58.06       75.05       2.56        
H           54.06       74.06       -0.17       
H           59.51       77.66       -0.06       
H           59.51       76.29       1.12        
H           59.20768    76.04098    -0.54633    
H           56.06       78.14       1.38        
H           57.43       77.88       2.38        
H           57.3413     79.11719    1.02079     
H           52.39       77.02       -4.39       
H           52.88       77.77       -5.8        
H           53.06187    78.60028    -4.29597    
H           54.13       75.01       -4.71       
H           54.24       75.56       -6.41       
H           55.71058    75.26728    -5.38709    
H           57.39       72.57       3.9         
H           56.88       79.02       -9.28       
S           54.37       72.12       1.99        
C           56.52       72.72       3.28        
C           55.55       71.77       3.29        
C           61.82       80.37       -11.42      
C           60.45       80.32       -11.88      
C           61.98       80.25       -10.06      
N           59.97       80.51       -13.08      
N           58.15       80.14       -11.41      
S           58.35       80.22       -13.02      
H           61.16       79.75       -8.15       
H           62.99       80.24       -9.66       
C           60.92       79.9        -9.16       
C           59.4        80.13       -10.94      
C           59.58       80.02       -9.51       
C           76.88       82.61       -17.48      
C           76.57       82.75       -16.18      
S           75.5        82.04       -18.49      
C           70.98       81.59       -14.11      
C           71.16       81.47       -15.5       
C           70.12       81.21       -16.37      
C           68.83       81.14       -15.82      
C           68.6        81.5        -14.48      
C           69.71       81.64       -13.56      
C           67.54       80.53       -16.46      
C           66.52       80.96       -15.36      
C           67.17       81.46       -14.21      
C           72.36       81.82       -13.44      
C           73.3        81.93       -14.67      
C           72.56       81.66       -15.85      
C           65.19       80.74       -15.33      
C           64.52       80.96       -14.06      
C           65.26       81.48       -12.97      
C           66.61       81.81       -13.03      
C           74.59       82.33       -14.68      
C           75.28       82.25       -15.9       
C           74.52       81.91       -17.06      
C           73.2        81.66       -17.12      
C           67.14       81.25       -17.74      
C           67.48       78.99       -16.58      
C           72.35       83.14       -12.53      
C           72.66       80.6        -12.58      
H           69.55       81.9        -12.53      
H           70.22       81.0        -17.45      
H           75.08       82.77       -13.78      
H           72.66       81.42       -18.03      
H           64.74       80.28       -16.2       
H           67.1        82.05       -12.15      
H           67.95       80.98       -18.4       
H           66.2        80.93       -18.23      
H           67.08419    82.33837    -17.71907   
H           67.53       78.48       -15.57      
H           66.5        78.63       -16.95      
H           68.33317    78.62029    -17.14878   
H           72.16       80.64       -11.67      
H           73.74       80.43       -12.45      
H           72.32743    79.66597    -13.03286   
H           71.71       83.05       -11.65      
H           73.36       83.38       -12.13      
H           72.09998    84.04722    -13.08004   
H           62.58       80.02       -14.34      
H           77.2        83.18       -15.44      
S           64.31       81.52       -11.47      
C           63.27       80.54       -13.65      
C           63.0        80.7        -12.3       
C           80.5        83.54       -20.01      
C           80.39       83.91       -18.65      
C           79.36       82.91       -20.43      
N           81.27       84.65       -17.97      
N           79.17       84.34       -16.69      
S           80.64       84.96       -16.46      
H           77.42       82.01       -20.15      
H           79.3        82.49       -21.44      
C           78.19       82.61       -19.6       
C           79.18       83.71       -17.87      
C           78.08       82.97       -18.27      
C           92.43       86.22       -31.01      
C           91.29       85.44       -31.32      
S           92.72       86.26       -29.28      
C           87.24       84.02       -27.17      
C           88.53       84.23       -26.6       
C           88.73       84.25       -25.25      
C           87.65       84.15       -24.39      
C           86.38       83.9        -24.9       
C           86.2        83.83       -26.31      
C           87.48       84.23       -22.88      
C           85.99       83.94       -22.69      
C           85.32       83.76       -23.88      
C           87.27       83.97       -28.68      
C           88.76       84.26       -28.88      
C           89.44       84.51       -27.67      
C           85.32       83.96       -21.47      
C           83.92       83.76       -21.49      
C           83.32       83.63       -22.78      
C           83.97       83.59       -23.98      
C           89.31       84.46       -30.09      
C           90.58       85.01       -30.14      
C           91.32       85.25       -28.97      
C           90.76       84.91       -27.71      
C           88.39       83.18       -22.22      
C           87.71       85.7        -22.32      
C           87.07       82.56       -29.31      
C           86.44       85.12       -29.3       
H           85.21       83.58       -26.74      
H           89.64       84.47       -24.82      
H           88.75       84.29       -30.99      
H           91.39       84.96       -26.8       
H           85.87       84.2        -20.59      
H           83.4        83.35       -24.9       
H           89.44       83.41       -22.47      
H           88.16       82.17       -22.48      
H           88.31382    83.18693    -21.13269   
H           88.79       86.04       -22.4       
H           87.41       85.75       -21.28      
H           87.17701    86.42746    -22.93222   
H           86.69       85.25       -30.33      
H           86.61       86.15       -28.91      
H           85.35974    85.04939    -29.17291   
H           86.06       82.2        -29.03      
H           87.04       82.68       -30.42      
H           87.73626    81.79555    -28.91024   
H           83.36       84.14       -19.49      
H           90.86       85.38       -32.37      
S           81.56       83.45       -22.54      
C           83.01       83.94       -20.43      
C           81.72       83.6        -20.8       
C           95.02       88.69       -33.59      
C           93.87       88.11       -34.13      
C           95.24       88.46       -32.27      
N           93.41       88.19       -35.41      
N           91.9        86.85       -34.01      
S           92.01       87.37       -35.52      
H           94.68       87.56       -30.37      
H           96.15       88.81       -31.82      
C           94.42       87.64       -31.47      
C           93.02       87.24       -33.32      
C           93.28       87.01       -31.89      
C           103.43      100.51      -41.37      
C           103.33      100.43      -40.04      
S           102.85      99.05       -42.16      
C           100.83      95.69       -37.24      
C           100.78      95.63       -38.71      
C           100.15      94.59       -39.33      
C           99.5        93.59       -38.61      
C           99.5        93.66       -37.18      
C           100.23      94.69       -36.51      
C           98.92       92.17       -39.08      
C           98.28       91.81       -37.74      
C           98.76       92.55       -36.67      
C           101.42      97.01       -36.77      
C           101.87      97.66       -38.11      
C           101.4       96.84       -39.23      
C           97.38       90.79       -37.54      
C           97.01       90.56       -36.16      
C           97.71       91.18       -35.08      
C           98.55       92.22       -35.32      
C           102.39      98.91       -38.32      
C           102.7       99.2        -39.6       
C           102.28      98.34       -40.67      
C           101.57      97.21       -40.54      
C           97.86       92.34       -40.17      
C           99.97       91.07       -39.33      
C           100.41      97.98       -36.03      
C           102.68      96.8        -35.92      
H           100.22      94.77       -35.39      
H           100.14      94.49       -40.4       
H           102.76      99.52       -37.45      
H           101.45      96.56       -41.37      
H           97.05       90.15       -38.35      
H           99.07       92.83       -34.53      
H           98.28       92.68       -41.09      
H           97.45       91.32       -40.38      
H           97.05236    92.99755    -39.84837   
H           100.26      90.71       -38.42      
H           99.41       90.32       -39.88      
H           100.79205   91.41067    -39.9595    
H           103.4       97.58       -35.99      
H           103.1       95.92       -36.37      
H           102.52385   96.58707    -34.86246   
H           100.06      97.49       -35.13      
H           100.9       98.96       -35.75      
H           99.59621    98.28517    -36.68781   
H           95.42       88.99       -36.42      
H           103.59      101.25      -39.38      
S           97.06       90.61       -33.56      
C           96.0        89.61       -35.71      
C           95.91       89.51       -34.37      
C           103.52      104.08      -43.9       
C           104.23      102.88      -44.28      
C           102.98      104.02      -42.59      
N           104.69      102.65      -45.56      
N           104.79      100.65      -44.01      
S           105.03      101.02      -45.65      
H           102.55      102.95      -40.77      
H           102.46      104.89      -42.19      
C           103.02      102.88      -41.76      
C           104.2       101.71      -43.43      
C           103.65      101.73      -42.13      
C           108.31      117.9       -51.44      
C           107.92      117.84      -50.14      
S           107.69      116.51      -52.31      
C           105.55      112.95      -47.48      
C           105.8       112.81      -48.91      
C           105.35      111.67      -49.61      
C           104.91      110.57      -48.81      
C           104.79      110.66      -47.43      
C           105.15      111.8       -46.76      
C           104.43      109.18      -49.29      
C           103.86      108.56      -48.0       
C           104.24      109.4       -46.93      
C           105.82      114.39      -47.1       
C           106.29      114.99      -48.41      
C           106.21      114.13      -49.49      
C           103.46      107.25      -47.78      
C           103.44      106.79      -46.45      
C           103.75      107.67      -45.41      
C           104.04      109.01      -45.58      
C           106.73      116.3       -48.53      
C           107.12      116.7       -49.81      
C           106.94      115.88      -50.87      
C           106.42      114.56      -50.79      
C           103.36      109.46      -50.4       
C           105.6       108.27      -49.85      
C           104.51      115.03      -46.63      
C           106.94      114.55      -46.05      
H           105.13      111.87      -45.65      
H           105.46      111.57      -50.72      
H           106.88      116.97      -47.63      
H           106.4       113.9       -51.66      
H           103.06      106.62      -48.56      
H           104.19      109.72      -44.71      
H           103.86      109.82      -51.28      
H           102.67      110.23      -49.98      
H           102.7238    108.60926   -50.64412   
H           105.38      108.14      -50.86      
H           105.55      107.19      -49.65      
H           106.63181   108.60677   -49.74969   
H           106.72      115.54      -45.74      
H           107.82      114.54      -46.59      
H           106.94      113.7905    -45.26817   
H           104.1       114.43      -45.8       
H           104.74      115.97      -46.16      
H           103.76862   115.19324   -47.41219   
H           103.27      104.6       -46.72      
H           108.21      118.63      -49.42      
S           103.7       106.79      -43.89      
C           103.38      105.47      -46.06      
C           103.46      105.31      -44.72      
C           111.25      120.8       -52.87      
C           110.2       120.31      -53.79      
C           111.17      120.28      -51.57      
N           110.02      120.64      -55.11      
N           108.31      118.96      -54.25      
S           108.82      119.68      -55.6       
H           110.33      118.82      -50.2       
H           112.02      120.4       -50.85      
C           110.19      119.3       -51.2       
C           109.21      119.31      -53.32      
C           109.24      118.83      -51.99      
C           126.89      124.25      -57.9       
C           126.04      123.51      -58.7       
S           126.16      124.53      -56.34      
C           120.32      122.03      -57.05      
C           121.0       122.69      -56.06      
C           120.41      123.31      -54.94      
C           119.13      122.94      -54.66      
C           118.35      122.17      -55.56      
C           118.97      121.77      -56.84      
C           118.34      123.34      -53.39      
C           117.03      122.78      -53.74      
C           117.0       122.05      -54.99      
C           121.19      121.7       -58.3       
C           122.53      122.31      -57.82      
C           122.37      122.97      -56.57      
C           115.91      122.86      -52.99      
C           114.75      122.2       -53.43      
C           114.74      121.41      -54.58      
C           115.89      121.29      -55.39      
C           123.59      122.6       -58.57      
C           124.74      123.25      -58.05      
C           124.65      123.76      -56.72      
C           123.39      123.73      -56.02      
C           119.01      122.85      -52.06      
C           118.02      124.9       -53.36      
C           121.29      120.14      -58.39      
C           120.73      122.4       -59.56      
H           118.39      121.19      -57.56      
H           121.05      123.8       -54.19      
H           123.61      122.23      -59.63      
H           123.31      124.12      -55.06      
H           115.84      123.48      -52.09      
H           115.95      120.64      -56.22      
H           119.93      123.45      -51.9       
H           118.33      123.19      -51.27      
H           119.15374   121.77191   -51.98813   
H           117.45      125.21      -54.25      
H           117.49      125.18      -52.45      
H           118.84438   125.59306   -53.19221   
H           121.44      122.14      -60.35      
H           120.82      123.52      -59.49      
H           119.78166   122.05322   -59.97048   
H           120.38      119.61      -58.68      
H           121.96      119.89      -59.15      
H           121.60616   119.67631   -57.45558   
H           113.31      122.64      -51.78      
H           126.32      123.23      -59.72      
S           113.18      120.7       -54.86      
C           113.46      122.08      -52.69      
C           112.49      121.37      -53.4       
C           130.98      125.66      -58.1       
C           130.42      124.89      -59.18      
C           130.05      126.14      -57.13      
N           131.08      124.4       -60.25      
N           128.71      123.87      -60.22      
S           130.06      123.43      -61.04      
H           128.11      126.02      -56.25      
H           130.34      126.82      -56.33      
C           128.75      125.7       -57.07      
C           129.05      124.56      -59.13      
C           128.23      124.85      -58.03      
C           144.68      124.06      -49.93      
C           143.51      124.66      -49.58      
S           144.78      123.97      -51.7       
C           139.29      126.76      -53.49      
C           140.24      125.9       -54.0       
C           140.14      125.37      -55.27      
C           138.97      125.59      -55.95      
C           137.98      126.52      -55.49      
C           138.1       127.16      -54.22      
C           138.44      124.71      -57.1       
C           137.0       125.4       -57.33      
C           136.81      126.35      -56.31      
C           139.67      127.17      -52.03      
C           140.81      126.18      -51.78      
C           141.3       125.6       -53.01      
C           135.99      124.95      -58.06      
C           134.72      125.57      -57.86      
C           134.56      126.62      -56.99      
C           135.61      126.99      -56.08      
C           141.54      126.02      -50.63      
C           142.7       125.22      -50.7       
C           143.19      124.74      -51.94      
C           142.48      124.85      -53.11      
C           139.24      124.77      -58.44      
C           138.21      123.26      -56.64      
C           140.11      128.65      -52.04      
C           138.49      127.03      -51.03      
H           137.38      127.89      -53.83      
H           140.83      124.54      -55.66      
H           141.25      126.54      -49.67      
H           142.82      124.37      -54.0       
H           136.13      124.06      -58.66      
H           135.44      127.7       -55.27      
H           138.93      124.06      -59.16      
H           140.25      124.55      -58.27      
H           139.23264   125.7564    -58.90375   
H           139.18      122.97      -56.35      
H           138.0       122.66      -57.49      
H           137.59141   123.14184   -55.75034   
H           137.91      127.95      -51.14      
H           138.9       126.95      -50.01      
H           137.91088   126.11188   -51.12887   
H           139.29      129.29      -52.2       
H           140.49      128.83      -51.02      
H           140.83585   128.85047   -52.82807   
H           133.34      124.4       -59.21      
H           143.22      124.73      -48.55      
S           132.91      127.11      -56.82      
C           133.48      125.21      -58.47      
C           132.38      125.93      -57.99      
C           147.42      121.5       -47.71      
C           146.25      122.0       -47.13      
C           147.62      121.9       -48.98      
N           145.86      121.65      -45.93      
N           144.26      123.18      -46.97      
S           144.48      122.37      -45.52      
H           146.89      123.03      -50.72      
H           148.48      121.56      -49.58      
C           146.7       122.79      -49.68      
C           145.32      122.82      -47.77      
C           145.54      123.27      -49.09      
C           160.68      113.12      -42.39      
C           160.24      113.05      -43.69      
S           159.38      113.67      -41.3       
C           155.1       115.81      -45.52      
C           155.19      115.67      -44.08      
C           154.29      116.25      -43.24      
C           153.08      116.81      -43.69      
C           152.97      116.87      -45.09      
C           154.05      116.5       -45.99      
C           151.91      117.44      -42.96      
C           151.1       117.98      -44.16      
C           151.72      117.6       -45.35      
C           156.24      115.08      -46.18      
C           157.03      114.53      -44.98      
C           156.51      115.06      -43.76      
C           150.04      118.79      -44.21      
C           149.61      119.38      -45.46      
C           150.24      119.0       -46.67      
C           151.29      118.1       -46.64      
C           158.2       113.83      -45.03      
C           158.91      113.61      -43.83      
C           158.37      114.12      -42.62      
C           157.12      114.79      -42.6       
C           151.07      116.37      -42.17      
C           152.35      118.69      -42.08      
C           155.67      114.02      -47.16      
C           157.02      116.21      -46.92      
H           154.06      116.74      -47.03      
H           154.51      116.14      -42.24      
H           158.54      113.43      -45.94      
H           156.7       115.03      -41.6       
H           149.53      119.08      -43.26      
H           151.8       117.89      -47.52      
H           150.39      116.83      -41.47      
H           151.6       115.64      -41.52      
H           150.43101   115.80742   -42.85066   
H           152.97      118.45      -41.18      
H           151.45      119.19      -41.85      
H           152.98487   119.39542   -42.61612   
H           156.34      117.02      -47.2       
H           157.62      116.62      -46.14      
H           157.59756   115.90713   -47.79338   
H           156.38      113.73      -48.01      
H           154.79      114.44      -47.74      
H           155.35851   113.16168   -46.56471   
H           147.88      120.5       -44.92      
H           160.87      112.74      -44.53      
S           149.55      119.85      -48.07      
C           148.52      120.21      -45.73      
C           148.41      120.63      -47.03      
C           164.71      112.52      -40.64      
C           164.47      112.21      -42.01      
C           163.68      113.04      -39.98      
N           165.25      111.6       -42.89      
N           163.03      112.0       -43.82      
S           164.5       111.5       -44.35      
H           161.63      113.65      -39.88      
H           163.81      113.3       -38.91      
C           162.34      113.14      -40.53      
C           163.09      112.35      -42.58      
C           162.0       112.83      -41.84      
H           43.79       34.38       -2.5        
H           165.69      112.39      -40.22      
