612

C           43.01       28.32       40.55       
C           43.62       29.16       39.63       
S           43.02       29.15       42.11       
C           46.24       34.59       41.11       
C           45.61       33.91       42.17       
C           45.52       34.39       43.51       
C           46.26       35.57       43.79       
C           46.67       36.37       42.69       
C           46.66       35.91       41.34       
C           46.56       36.19       45.11       
C           47.05       37.63       44.71       
C           47.08       37.66       43.28       
C           46.18       33.8        39.87       
C           45.41       32.53       40.33       
C           44.98       32.7        41.65       
C           47.61       38.67       45.47       
C           48.13       39.8        44.79       
C           48.11       39.81       43.4        
C           47.47       38.79       42.63       
C           45.06       31.42       39.59       
C           44.25       30.41       40.18       
C           43.9        30.54       41.51       
C           44.23       31.7        42.24       
C           45.26       36.2        45.94       
C           47.79       35.45       45.68       
C           45.35       34.62       38.83       
C           47.57       33.43       39.19       
H           47.05       36.53       40.53       
H           44.93       33.94       44.31       
H           45.22       31.35       38.51       
H           43.95       31.69       43.27       
H           47.65       38.59       46.6        
H           47.44       38.85       41.6        
H           44.91       35.21       46.35       
H           44.4        36.53       45.42       
H           45.30881    36.81364    46.83954    
H           48.69       35.59       45.05       
H           47.94       35.91       46.63       
H           47.69762    34.36989    45.7937     
H           47.87       34.32       38.69       
H           47.48       32.63       38.43       
H           48.28354    33.12526    39.95557    
H           45.74       35.7        38.81       
H           45.3        34.22       37.82       
H           44.29086    34.77229    39.03767    
H           48.93       41.13       46.32       
H           43.78       28.83       38.6        
S           48.79       41.32       42.77       
C           48.82       40.95       45.29       
C           49.31       41.82       44.35       
C           42.03       24.11       40.7        
C           42.37       24.68       39.45       
C           41.7        25.0        41.71       
N           42.7        24.02       38.3        
N           42.81       26.49       37.95       
S           43.12       25.06       37.08       
H           41.77       26.94       42.34       
H           41.34       24.67       42.67       
C           41.92       26.35       41.49       
C           42.57       26.1        39.25       
C           42.53       26.97       40.41       
C           33.93       10.89       44.23       
C           34.48       11.69       45.23       
S           34.86       10.97       42.77       
C           38.93       15.6        44.12       
C           38.72       14.69       43.05       
C           39.22       14.91       41.76       
C           39.96       16.07       41.59       
C           40.17       16.97       42.7        
C           39.63       16.74       43.9        
C           40.66       16.68       40.28       
C           41.18       17.99       40.88       
C           40.79       18.15       42.26       
C           38.28       15.16       45.36       
C           37.35       14.07       44.83       
C           37.71       13.76       43.51       
C           41.56       19.11       40.15       
C           41.68       20.35       40.8        
C           41.43       20.46       42.18       
C           41.05       19.36       42.95       
C           36.32       13.4        45.46       
C           35.59       12.5        44.75       
C           35.93       12.22       43.42       
C           37.11       12.7        42.83       
C           41.72       15.72       39.78       
C           39.59       16.95       39.19       
C           39.38       14.56       46.32       
C           37.53       16.4        45.95       
H           39.77       17.51       44.71       
H           39.08       14.22       40.93       
H           36.03       13.55       46.55       
H           37.31       12.48       41.84       
H           41.9        19.02       39.07       
H           40.8        19.51       43.99       
H           41.35       14.72       39.56       
H           42.18       16.29       38.92       
H           42.61       15.74825    40.40865    
H           39.24       16.1        38.75       
H           40.12       17.56       38.46       
H           38.74984    17.55115    39.53765    
H           36.54       15.99       46.14       
H           37.32       17.22       45.24       
H           37.94141    16.90903    46.82163    
H           39.97       15.39       46.59       
H           38.85       14.19       47.23       
H           39.98318    13.75813    45.89423    
H           42.61       21.64       39.21       
H           34.08       11.72       46.25       
S           41.46       22.15       42.64       
C           42.18       21.58       40.24       
C           41.91       22.69       41.01       
C           30.41       8.19        44.3        
C           30.68       9.09        45.35       
C           31.24       8.4         43.29       
N           29.9        9.18        46.41       
N           31.81       10.76       46.52       
S           30.6        10.25       47.42       
H           32.8        9.36        42.24       
H           31.02       7.86        42.38       
C           32.29       9.34        43.19       
C           31.81       10.04       45.41       
C           32.73       10.09       44.32       
C           19.21       -2.0        37.99       
C           20.5        -1.75       37.65       
S           18.74       -1.08       39.37       
C           24.29       2.01        40.46       
C           23.03       1.97        41.02       
C           22.72       2.86        42.08       
C           23.67       3.62        42.69       
C           24.99       3.49        42.13       
C           25.25       2.84        40.98       
C           23.64       4.7         43.83       
C           25.1        5.06        43.83       
C           25.88       4.42        42.78       
C           24.44       1.16        39.26       
C           23.1        0.45        39.26       
C           22.23       0.93        40.29       
C           25.85       5.94        44.56       
C           27.2        6.32        44.28       
C           27.84       5.67        43.21       
C           27.24       4.65        42.57       
C           22.56       -0.42       38.31       
C           21.22       -0.85       38.47       
C           20.41       -0.48       39.55       
C           20.86       0.43        40.45       
C           22.7        5.88        43.28       
C           23.26       4.34        45.31       
C           24.67       2.07        37.99       
C           25.47       0.04        39.45       
H           26.22       2.91        40.48       
H           21.64       2.92        42.34       
H           23.12       -0.76       37.47       
H           20.18       0.83        41.18       
H           25.35       6.4         45.43       
H           27.79       4.07        41.91       
H           21.69       5.62        43.57       
H           22.9        5.66        42.14       
H           22.99449    6.90711     43.49548    
H           22.23       3.84        45.29       
H           23.26       5.3         45.89       
H           23.95756    3.61368     45.7271     
H           26.46       0.39        39.37       
H           25.32       -0.87       38.79       
H           25.42818    -0.39913    40.44675    
H           25.74       2.3         38.04       
H           24.53       1.56        37.03       
H           24.00407    2.93221     37.95495    
H           27.97       7.81        45.73       
H           21.09       -2.2        36.85       
S           29.52       6.08        43.03       
C           28.14       7.18        44.85       
C           29.32       7.31        44.24       
C           16.78       -5.43       36.83       
C           17.71       -4.91       35.91       
C           16.55       -4.64       37.86       
N           18.17       -5.48       34.8        
N           19.48       -3.5        35.33       
S           19.47       -4.66       34.17       
H           17.0        -2.97       39.24       
H           15.75       -4.91       38.55       
C           17.26       -3.46       38.22       
C           18.54       -3.71       36.26       
C           18.34       -3.02       37.49       
C           5.18        -16.51      33.32       
C           6.26        -16.38      32.49       
S           5.41        -15.66      34.8        
C           10.71       -12.41      33.66       
C           10.04       -12.91      34.81       
C           10.25       -12.37      36.12       
C           11.33       -11.54      36.25       
C           12.11       -11.12      35.11       
C           11.75       -11.51      33.83       
C           11.88       -11.01      37.56       
C           12.99       -10.18      36.98       
C           13.0        -10.15      35.57       
C           10.38       -13.2       32.38       
C           9.25        -14.13      32.93       
C           8.95        -13.74      34.32       
C           13.75       -9.33       37.71       
C           14.57       -8.42       37.03       
C           14.62       -8.37       35.63       
C           13.84       -9.22       34.89       
C           8.55        -15.14      32.32       
C           7.29        -15.46      32.92       
C           6.9         -14.94      34.24       
C           7.81        -14.16      35.01       
C           10.9        -10.23      38.5        
C           12.71       -12.16      38.23       
C           9.78        -12.14      31.31       
C           11.66       -13.9       31.77       
H           12.36       -11.19      33.03       
H           9.62        -12.67      36.92       
H           8.87        -15.69      31.45       
H           7.57        -13.87      36.04       
H           13.9        -9.45       38.77       
H           13.8        -9.14       33.84       
H           10.05       -10.79      38.8        
H           11.38       -10.11      39.53       
H           10.5183     -9.31244    38.05223    
H           13.35       -12.64      37.43       
H           13.38       -11.71      39.03       
H           12.08206    -12.96117   38.61976    
H           12.41       -13.2       31.6        
H           12.07       -14.54      32.57       
H           11.50681    -14.63112   30.97621    
H           10.4        -11.17      31.26       
H           9.83        -12.58      30.36       
H           8.72488     -11.91787   31.46966    
H           15.5        -7.13       38.63       
H           6.27        -16.92      31.56       
S           15.48       -7.02       34.9        
C           15.37       -7.34       37.57       
C           15.97       -6.61       36.54       
C           1.86        -19.43      34.02       
C           3.0         -19.81      33.25       
C           1.97        -18.13      34.46       
N           3.2         -21.12      32.86       
N           5.14        -19.52      32.3        
S           4.73        -21.14      32.3        
H           3.0         -16.3       34.68       
H           1.28        -17.7       35.17       
C           3.02        -17.24      34.15       
C           4.1         -18.88      32.9        
C           4.11        -17.55      33.36       
C           -5.26       -25.78      47.36       
C           -5.36       -24.48      46.97       
S           -4.21       -26.66      46.19       
C           -2.84       -22.16      41.95       
C           -2.65       -23.5       42.14       
C           -1.99       -24.28      41.22       
C           -1.53       -23.79      40.05       
C           -1.71       -22.43      39.85       
C           -2.41       -21.57      40.8        
C           -1.01       -24.5       38.78       
C           -0.54       -23.32      37.93       
C           -1.29       -22.19      38.44       
C           -3.55       -21.51      43.16       
C           -3.63       -22.67      44.13       
C           -3.28       -23.84      43.42       
C           0.12        -23.29      36.74       
C           0.15        -22.1       36.01       
C           -0.64       -21.0       36.54       
C           -1.46       -21.05      37.67       
C           -4.31       -22.77      45.33       
C           -4.56       -24.08      45.83       
C           -4.0        -25.2       45.24       
C           -3.38       -25.1       43.98       
C           0.23        -25.35      39.03       
C           -2.03       -25.21      37.83       
C           -2.77       -20.34      43.76       
C           -5.06       -21.09      42.86       
H           -2.57       -20.52      40.56       
H           -1.7        -25.33      41.41       
H           -4.72       -21.87      45.85       
H           -2.9        -25.92      43.51       
H           0.81        -24.11      36.4        
H           -1.93       -20.09      38.09       
H           0.1         -26.17      39.65       
H           0.46        -25.81      38.08       
H           1.0797      -24.73793   39.33244    
H           -2.91       -24.59      37.82       
H           -1.54       -25.38      36.85       
H           -2.48648    -26.10891   38.24434    
H           -5.13       -19.99      42.73       
H           -5.72       -21.46      43.6        
H           -5.51017    -21.59019   42.00253    
H           -2.8        -19.53      43.06       
H           -3.3        -19.93      44.63       
H           -1.76408    -20.58605   44.10013    
H           1.81        -22.33      34.56       
H           -6.03       -23.83      47.45       
S           -0.31       -19.53      35.61       
C           1.02        -21.72      34.93       
C           0.93        -20.33      34.71       
C           -8.02       -28.02      50.03       
C           -6.75       -28.64      49.63       
C           -8.16       -26.75      49.68       
N           -6.33       -29.91      49.88       
N           -4.76       -28.52      48.55       
S           -4.79       -30.03      49.23       
H           -7.59       -25.03      48.46       
H           -9.08       -26.29      49.97       
C           -7.27       -26.0       48.84       
C           -5.84       -27.87      48.8        
C           -6.14       -26.57      48.31       
C           -23.45      -32.22      50.33       
C           -23.07      -31.16      51.06       
S           -22.11      -33.37      50.17       
C           -17.12      -30.11      52.25       
C           -17.43      -31.47      52.0        
C           -16.44      -32.45      51.67       
C           -15.12      -32.04      51.64       
C           -14.79      -30.78      52.04       
C           -15.76      -29.81      52.4        
C           -13.84      -32.66      51.01       
C           -12.73      -31.62      51.25       
C           -13.37      -30.54      51.87       
C           -18.39      -29.25      52.25       
C           -19.5       -30.28      52.13       
C           -18.9       -31.51      51.8        
C           -11.48      -31.61      50.84       
C           -10.71      -30.43      50.96       
C           -11.33      -29.28      51.53       
C           -12.61      -29.33      52.04       
C           -20.88      -30.07      52.0        
C           -21.69      -31.14      51.45       
C           -21.05      -32.31      51.05       
C           -19.68      -32.51      51.25       
C           -13.45      -33.95      51.77       
C           -14.14      -32.91      49.53       
C           -18.55      -28.53      53.66       
C           -18.46      -28.27      51.09       
H           -15.49      -28.83      52.63       
H           -16.71      -33.53      51.46       
H           -21.25      -29.1       52.12       
H           -19.23      -33.39      50.84       
H           -11.07      -32.54      50.58       
H           -13.15      -28.42      52.37       
H           -14.1       -34.75      51.59       
H           -12.44      -34.21      51.38       
H           -13.31497   -33.81497   52.84314    
H           -14.51      -32.07      49.06       
H           -13.26      -33.13      49.02       
H           -14.7365    -33.75212   49.17912    
H           -18.28      -27.28      51.47       
H           -19.47      -28.3       50.68       
H           -17.72583   -28.45532   50.30594    
H           -17.71      -27.83      53.72       
H           -19.39      -27.93      53.76       
H           -18.52103   -29.16743   54.54371    
H           -8.8        -30.79      49.79       
H           -23.67      -30.34      51.12       
S           -10.26      -27.85      51.5        
C           -9.34       -30.13      50.42       
C           -9.11       -28.81      50.59       
C           -26.82      -32.88      47.57       
C           -26.64      -31.6       48.17       
C           -25.86      -33.81      47.88       
N           -27.54      -30.63      48.12       
N           -25.69      -30.21      49.8        
S           -27.05      -29.48      49.19       
H           -24.21      -34.45      49.04       
H           -25.85      -34.81      47.45       
C           -24.8       -33.57      48.8        
C           -25.59      -31.38      49.14       
C           -24.62      -32.38      49.42       
C           -34.94      -36.05      33.71       
C           -33.97      -36.83      34.19       
S           -35.45      -34.84      34.95       
C           -31.98      -36.48      40.04       
C           -32.86      -35.43      39.61       
C           -33.2       -34.45      40.5        
C           -32.56      -34.38      41.7        
C           -31.51      -35.27      42.05       
C           -31.34      -36.35      41.23       
C           -32.58      -33.18      42.62       
C           -31.33      -33.46      43.43       
C           -30.7       -34.72      43.17       
C           -31.62      -37.46      38.89       
C           -32.47      -36.77      37.75       
C           -33.26      -35.75      38.22       
C           -30.85      -32.68      44.5        
C           -29.78      -33.17      45.27       
C           -29.29      -34.49      45.03       
C           -29.58      -35.17      43.86       
C           -32.7       -37.27      36.43       
C           -33.58      -36.59      35.56       
C           -34.22      -35.41      36.07       
C           -34.08      -35.02      37.36       
C           -32.28      -31.9       41.85       
C           -33.84      -33.16      43.55       
C           -30.12      -37.43      38.62       
C           -32.22      -38.9       39.19       
H           -30.71      -37.18      41.49       
H           -33.97      -33.63      40.23       
H           -32.09      -38.02      36.03       
H           -34.65      -34.17      37.71       
H           -31.24      -31.66      44.61       
H           -29.1       -36.08      43.54       
H           -33.1       -31.54      41.25       
H           -32.05      -31.07      42.6        
H           -31.32871   -32.02069   41.33176    
H           -33.71      -33.98      44.2        
H           -33.86      -32.2       44.07       
H           -34.82706   -33.24521   43.09553    
H           -31.45      -39.59      39.3        
H           -32.82      -39.19      38.34       
H           -32.84613   -38.82885   40.07938    
H           -29.62      -37.87      39.49       
H           -29.87      -37.96      37.71       
H           -29.70489   -36.42681   38.52314    
H           -29.16      -31.53      46.55       
H           -33.61      -37.65      33.61       
S           -28.1       -34.92      46.23       
C           -29.01      -32.54      46.24       
C           -27.99      -33.24      46.77       
C           -37.89      -36.68      30.58       
C           -36.62      -37.32      30.5        
C           -37.98      -35.79      31.61       
N           -36.22      -38.12      29.51       
N           -34.52      -37.88      31.37       
S           -34.65      -38.55      29.89       
H           -37.22      -34.78      33.25       
H           -38.8       -35.09      31.63       
C           -36.98      -35.48      32.52       
C           -35.59      -37.11      31.48       
C           -35.78      -36.14      32.55       
C           -48.87      -30.47      20.17       
C           -49.04      -30.63      21.49       
S           -47.45      -31.3       19.59       
C           -45.41      -33.93      25.04       
C           -45.05      -33.95      23.65       
C           -43.9       -34.58      23.18       
C           -42.96      -35.04      24.14       
C           -43.36      -35.09      25.53       
C           -44.55      -34.46      25.96       
C           -41.45      -35.39      24.02       
C           -41.17      -35.87      25.47       
C           -42.29      -35.69      26.33       
C           -46.63      -33.02      25.37       
C           -47.11      -32.82      23.88       
C           -46.09      -33.26      22.97       
C           -39.97      -36.25      26.06       
C           -39.88      -36.36      27.46       
C           -41.01      -36.21      28.29       
C           -42.25      -35.93      27.73       
C           -48.12      -32.01      23.41       
C           -48.1       -31.58      22.08       
C           -47.13      -32.02      21.2        
C           -46.08      -32.82      21.67       
C           -41.21      -36.48      22.92       
C           -40.51      -34.22      23.64       
C           -47.69      -33.78      26.22       
C           -46.07      -31.69      26.1        
H           -44.7       -34.36      27.01       
H           -43.7       -34.4       22.13       
H           -48.88      -31.53      24.01       
H           -45.25      -33.22      20.94       
H           -39.13      -36.49      25.38       
H           -43.18      -35.78      28.22       
H           -41.72      -36.24      22.01       
H           -40.17      -36.59      22.69       
H           -41.60021   -37.43713   23.26604    
H           -40.72      -33.94      22.59       
H           -39.48      -34.57      23.75       
H           -40.69786   -33.4268    24.36363    
H           -45.23      -31.26      25.49       
H           -45.72      -31.98      27.1        
H           -46.89135   -30.99834   26.28733    
H           -47.33      -33.89      27.26       
H           -48.64      -33.27      26.2        
H           -47.8171    -34.82507   25.93755    
H           -37.73      -36.81      27.82       
H           -49.77      -30.21      22.08       
S           -40.56      -36.32      30.05       
C           -38.7       -36.68      28.27       
C           -38.91      -36.66      29.59       
C           -50.44      -27.37      17.51       
C           -50.7       -27.33      18.95       
C           -49.71      -28.46      17.09       
N           -51.54      -26.5       19.56       
N           -50.51      -28.14      21.09       
S           -51.57      -26.86      21.16       
H           -48.57      -30.18      17.42       
H           -49.44      -28.55      16.01       
C           -49.22      -29.46      17.92       
C           -50.25      -28.37      19.8        
C           -49.53      -29.49      19.32       
C           -53.63      -14.08      8.04        
C           -53.5       -14.11      9.41        
S           -53.53      -15.7       7.42        
C           -52.27      -19.09      12.69       
C           -52.59      -19.34      11.32       
C           -52.59      -20.61      10.77       
C           -52.17      -21.7       11.58       
C           -52.06      -21.44      12.96       
C           -52.1       -20.17      13.52       
C           -51.71      -23.21      11.26       
C           -51.68      -23.77      12.7        
C           -51.71      -22.71      13.6        
C           -52.31      -17.58      13.08       
C           -52.77      -17.03      11.73       
C           -52.89      -18.04      10.72       
C           -51.36      -25.03      13.14       
C           -51.15      -25.26      14.52       
C           -51.27      -24.22      15.41       
C           -51.54      -22.96      14.96       
C           -52.84      -15.67      11.36       
C           -53.1       -15.35      10.05       
C           -53.22      -16.35      9.05        
C           -53.1       -17.72      9.35        
C           -52.81      -23.87      10.34       
C           -50.32      -23.29      10.63       
C           -53.15      -17.27      14.31       
C           -50.84      -17.03      13.25       
H           -51.88      -19.97      14.57       
H           -52.76      -20.64      9.7         
H           -52.67      -14.85      12.07       
H           -53.08      -18.49      8.6         
H           -51.18      -25.84      12.37       
H           -51.82      -22.22      15.7        
H           -52.97      -23.25      9.47        
H           -52.34      -24.75      9.96        
H           -53.71749   -24.05876   10.91353    
H           -49.65      -23.14      11.47       
H           -50.21      -24.25      10.0        
H           -50.1656    -22.58416   9.81388     
H           -50.85      -16.24      14.07       
H           -50.47      -16.45      12.38       
H           -50.12049   -17.835     13.3996     
H           -52.57      -17.62      15.25       
H           -54.06      -17.85      14.23       
H           -53.39513   -16.22459   14.49745    
H           -50.73      -27.34      14.58       
H           -53.61      -13.24      9.94        
S           -51.07      -24.74      17.05       
C           -50.86      -26.47      15.19       
C           -50.86      -26.37      16.55       
C           -53.98      -10.81      5.02        
C           -53.98      -10.49      6.46        
C           -54.03      -12.16      4.74        
N           -54.0       -9.24       6.98        
N           -53.66      -11.08      8.65        
S           -53.72      -9.41       8.59        
H           -53.85      -14.14      5.29        
H           -54.0       -12.46      3.66        
C           -54.04      -13.2       5.72        
C           -53.83      -11.59      7.45        
C           -53.85      -13.02      7.07        
C           -47.63      -2.75       -8.12       
C           -47.15      -2.73       -6.84       
S           -49.25      -3.36       -8.11       
C           -50.18      -4.82       -1.88       
C           -50.8       -5.06       -3.11       
C           -51.96      -5.92       -3.19       
C           -52.3       -6.62       -2.03       
C           -51.69      -6.36       -0.78       
C           -50.68      -5.36       -0.7        
C           -53.49      -7.56       -1.85       
C           -53.29      -7.92       -0.34       
C           -52.28      -7.2        0.26        
C           -48.73      -4.32       -2.08       
C           -48.75      -3.96       -3.6        
C           -50.02      -4.45       -4.21       
C           -54.01      -8.87       0.35        
C           -53.73      -8.97       1.71        
C           -52.66      -8.3        2.28        
C           -51.97      -7.34       1.58        
C           -47.85      -3.34       -4.39       
C           -48.07      -3.21       -5.84       
C           -49.28      -3.77       -6.37       
C           -50.29      -4.39       -5.56       
C           -54.77      -6.86       -2.15       
C           -53.27      -8.86       -2.72       
C           -48.49      -3.04       -1.26       
C           -47.72      -5.45       -1.74       
H           -50.23      -5.2        0.3         
H           -52.42      -6.13       -4.18       
H           -46.86      -2.92       -3.97       
H           -51.18      -4.84       -5.97       
H           -54.92      -9.44       -0.05       
H           -51.24      -6.66       2.1         
H           -55.49      -7.68       -2.41       
H           -54.62      -6.3        -3.08       
H           -54.99074   -6.10522    -1.39522    
H           -53.55      -8.54       -3.81       
H           -53.96      -9.57       -2.34       
H           -52.28153   -9.31126    -2.63405    
H           -47.87      -5.77       -0.7        
H           -47.96      -6.26       -2.42       
H           -46.69834   -5.10465    -1.89828    
H           -47.54      -2.6        -1.45       
H           -48.37      -3.32       -0.22       
H           -49.28682   -2.29959    -1.33052    
H           -55.09      -10.6       2.29        
H           -46.23      -2.27       -6.64       
S           -52.45      -8.71       3.99        
C           -54.25      -9.96       2.63        
C           -53.7       -9.95       3.89        
C           -45.98      -1.27       -12.04      
C           -45.58      -0.69       -10.78      
C           -46.97      -2.25       -11.86      
N           -44.63      0.21        -10.68      
N           -45.52      -0.52       -8.52       
S           -44.41      0.56        -9.09       
H           -48.15      -3.57       -10.67      
H           -47.35      -2.74       -12.74      
C           -47.42      -2.71       -10.58      
C           -46.06      -1.19       -9.48       
C           -47.05      -2.23       -9.41       
H           49.83       42.73       44.5        
H           -45.56      -1.09       -13.03      
