612

C           18.72       61.31       14.51       
C           19.46       60.72       15.42       
S           19.19       60.79       12.88       
C           24.16       56.96       14.03       
C           23.37       57.39       12.92       
C           23.69       57.02       11.65       
C           24.97       56.42       11.48       
C           25.74       56.01       12.58       
C           25.3        56.19       13.87       
C           25.72       56.17       10.14       
C           27.01       55.44       10.66       
C           26.98       55.37       12.06       
C           23.62       57.61       15.26       
C           22.26       58.2        14.86       
C           22.24       58.24       13.48       
C           28.09       55.04       9.98        
C           29.12       54.47       10.76       
C           29.02       54.33       12.17       
C           27.94       54.81       12.83       
C           21.33       58.96       15.54       
C           20.38       59.8        14.9        
C           20.38       59.71       13.51       
C           21.31       59.02       12.8        
C           24.93       55.26       9.13        
C           26.21       57.48       9.43        
C           23.34       56.55       16.37       
C           24.47       58.79       15.81       
H           25.89       55.79       14.73       
H           23.19       57.41       10.78       
H           21.25       58.88       16.6        
H           21.26       59.12       11.75       
H           28.19       55.26       8.9         
H           27.9        54.83       13.88       
H           23.98       55.71       8.82        
H           25.39       55.26       8.2         
H           24.64368    54.29368    9.54516     
H           26.77       58.02       10.16       
H           27.0        57.35       8.71        
H           25.44177    58.16287    9.06722     
H           24.42       58.66       16.91       
H           23.87       59.65       15.69       
H           25.50814    58.86363    15.48604    
H           24.17       56.03       16.84       
H           22.91       57.05       17.21       
H           22.70137    55.74107    16.01521    
H           30.79       54.1        9.3         
H           19.35       60.95       16.5        
S           30.44       53.62       12.94       
C           30.4        53.95       10.34       
C           31.17       53.34       11.34       
C           15.04       63.79       14.82       
C           15.77       63.53       16.01       
C           15.74       63.54       13.7        
N           15.43       63.87       17.24       
N           17.49       62.65       17.2        
S           16.55       63.31       18.32       
H           17.22       62.45       12.62       
H           15.33       63.8        12.69       
C           16.92       62.78       13.61       
C           17.0        62.75       15.93       
C           17.58       62.27       14.7        
C           -1.47       65.24       13.87       
C           -0.86       64.92       14.99       
S           -0.37       65.79       12.58       
C           5.23        65.12       15.49       
C           4.8         65.51       14.23       
C           5.66        65.82       13.16       
C           7.05        65.63       13.38       
C           7.52        65.14       14.63       
C           6.58        64.9        15.65       
C           8.27        66.04       12.49       
C           9.42        65.31       13.2        
C           8.97        64.9        14.51       
C           4.15        65.0        16.51       
C           2.9         64.94       15.62       
C           3.32        65.54       14.37       
C           10.71       65.34       12.88       
C           11.6        64.85       13.92       
C           11.13       64.3        15.17       
C           9.79        64.39       15.52       
C           1.57        64.71       15.88       
C           0.57        65.07       14.92       
C           1.03        65.58       13.66       
C           2.39        65.75       13.41       
C           7.94        65.33       11.14       
C           8.38        67.59       12.41       
C           4.33        63.7        17.29       
C           4.03        66.25       17.42       
H           6.97        64.39       16.51       
H           5.32        66.2        12.25       
H           1.34        64.22       16.81       
H           2.78        66.13       12.45       
H           11.1        65.8        11.95       
H           9.41        63.97       16.51       
H           6.95        65.58       10.7        
H           7.9         64.27       11.33       
H           8.66822     65.46565    10.34038    
H           7.67        67.99       11.73       
H           9.36        67.87       11.97       
H           8.25149     68.06834    13.38097    
H           3.5         65.9        18.27       
H           3.34        66.82       16.9        
H           4.99245     66.74225    17.55959    
H           5.28        63.79       17.7        
H           3.63        63.57       18.11       
H           4.22242     62.81785    16.65887    
H           13.56       65.02       12.84       
H           -1.36       64.53       15.86       
S           12.53       63.8        16.13       
C           13.03       64.69       13.76       
C           13.69       64.2        14.83       
C           -5.82       65.26       12.91       
C           -5.43       65.44       14.29       
C           -4.8        65.07       12.05       
N           -6.14       65.75       15.4        
N           -3.75       65.71       15.93       
S           -5.19       65.71       16.71       
H           -2.8        65.12       11.48       
H           -5.07       64.92       10.99       
C           -3.45       65.18       12.37       
C           -3.99       65.49       14.62       
C           -2.93       65.3        13.63       
C           -20.14      67.5        4.81        
C           -18.89      67.7        4.27        
S           -20.16      67.11       6.53        
C           -13.94      66.07       7.34        
C           -15.08      66.18       8.12        
C           -15.1       66.09       9.52        
C           -13.81      65.93       10.2        
C           -12.65      65.86       9.41        
C           -12.73      65.94       7.96        
C           -13.47      65.84       11.73       
C           -11.9       65.75       11.57       
C           -11.47      65.72       10.22       
C           -14.24      66.42       5.87        
C           -15.68      66.83       5.96        
C           -16.18      66.54       7.25        
C           -10.95      65.66       12.55       
C           -9.62       65.42       12.25       
C           -9.16       65.43       10.89       
C           -10.09      65.5        9.86        
C           -16.5       67.18       4.92        
C           -17.85      67.32       5.2         
C           -18.37      66.95       6.47        
C           -17.48      66.69       7.52        
C           -13.86      67.21       12.5        
C           -14.0       64.62       12.46       
C           -13.51      67.64       5.39        
C           -14.1       65.28       4.83        
H           -11.87      65.85       7.31        
H           -15.99      66.29       10.1        
H           -16.08      67.49       3.87        
H           -17.84      66.51       8.55        
H           -11.23      65.76       13.59       
H           -9.8        65.41       8.76        
H           -14.88      67.17       12.72       
H           -13.29      67.37       13.44       
H           -13.63195   68.10838    11.92642    
H           -13.5       63.77       12.0        
H           -13.65      64.63       13.44       
H           -15.07473   64.44323    12.41758    
H           -13.2       65.36       4.24        
H           -14.92      65.22       4.12        
H           -13.97994   64.31242    5.31732     
H           -12.46      67.42       5.49        
H           -13.57      67.61       4.31        
H           -13.69838   68.60982    5.85049     
H           -8.56       65.12       14.2        
H           -18.73      67.84       3.26        
S           -7.47       65.21       10.71       
C           -8.49       65.12       13.09       
C           -7.26       65.24       12.44       
C           -23.92      66.55       2.77        
C           -22.82      67.09       2.07        
C           -23.71      66.5        4.11        
N           -22.79      67.32       0.76        
N           -20.65      67.88       1.82        
S           -21.3       67.87       0.29        
H           -22.47      66.82       5.87        
H           -24.57      66.36       4.74        
C           -22.47      66.9        4.78        
C           -21.53      67.41       2.7         
C           -21.38      67.3        4.12        
C           -38.93      62.03       -2.81       
C           -38.3       61.37       -1.75       
S           -38.07      63.4        -3.42       
C           -32.69      63.15       0.11        
C           -33.24      63.94       -0.97       
C           -32.52      64.98       -1.5        
C           -31.33      65.3        -0.92       
C           -30.88      64.62       0.17        
C           -31.52      63.57       0.69        
C           -30.18      66.15       -1.53       
C           -29.21      66.19       -0.33       
C           -29.62      65.19       0.62        
C           -33.52      61.91       0.36        
C           -34.78      62.17       -0.55       
C           -34.58      63.31       -1.32       
C           -28.08      66.98       -0.24       
C           -27.26      66.59       0.86        
C           -27.64      65.56       1.82        
C           -28.85      64.83       1.75        
C           -35.97      61.47       -0.69       
C           -36.99      61.89       -1.54       
C           -36.71      62.91       -2.41       
C           -35.59      63.73       -2.25       
C           -29.78      65.41       -2.82       
C           -30.8       67.54       -1.83       
C           -32.65      60.68       0.01        
C           -34.04      61.83       1.84        
H           -31.19      63.06       1.54        
H           -32.93      65.67       -2.31       
H           -36.12      60.56       -0.13       
H           -35.45      64.62       -2.85       
H           -27.77      67.71       -0.96       
H           -29.0       64.01       2.44        
H           -30.49      65.75       -3.55       
H           -30.07      64.38       -2.74       
H           -28.73834   65.49446    -3.12968    
H           -31.44      67.44       -2.69       
H           -30.0       68.16       -2.08       
H           -31.40722   67.94482    -1.02037    
H           -33.44      61.04       2.25        
H           -35.12      61.56       1.87        
H           -33.93927   62.77977    2.36525     
H           -31.83      60.63       0.74        
H           -33.26      59.82       0.06        
H           -32.16848   60.70189    -0.96763    
H           -25.44      67.78       0.56        
H           -38.74      60.54       -1.22       
S           -26.35      65.2        2.95        
C           -25.95      67.03       1.16        
C           -25.31      66.41       2.22        
C           -43.42      61.87       -3.4        
C           -42.55      62.66       -4.29       
C           -42.67      61.25       -2.45       
N           -42.94      63.53       -5.26       
N           -40.5       63.43       -5.09       
S           -41.6       64.11       -6.1        
H           -40.95      60.8        -1.42       
H           -43.2       60.69       -1.73       
C           -41.27      61.31       -2.28       
C           -41.08      62.67       -4.18       
C           -40.4       61.97       -3.11       
C           -59.55      65.21       -1.67       
C           -59.05      64.21       -0.81       
S           -58.24      66.21       -2.26       
C           -53.23      62.66       -1.35       
C           -53.62      63.73       -2.18       
C           -52.69      64.3        -3.05       
C           -51.43      63.82       -3.12       
C           -51.03      62.73       -2.31       
C           -51.91      62.16       -1.38       
C           -50.35      64.4        -3.95       
C           -49.33      63.32       -3.8        
C           -49.61      62.45       -2.72       
C           -54.43      62.04       -0.58       
C           -55.52      62.98       -1.03       
C           -54.95      64.08       -1.76       
C           -48.07      63.41       -4.39       
C           -47.03      62.64       -3.74       
C           -47.31      61.81       -2.65       
C           -48.61      61.66       -2.18       
C           -56.8       63.05       -0.5        
C           -57.6       64.07       -0.9        
C           -57.03      65.16       -1.64       
C           -55.71      65.22       -1.99       
C           -50.74      64.58       -5.44       
C           -49.81      65.76       -3.41       
C           -54.77      60.56       -0.89       
C           -54.38      62.31       0.95        
H           -51.57      61.28       -0.78       
H           -53.01      65.17       -3.58       
H           -57.37      62.2        -0.11       
H           -55.36      66.01       -2.68       
H           -47.86      64.07       -5.19       
H           -48.78      60.91       -1.4        
H           -51.45      65.3        -5.69       
H           -49.75      64.96       -5.76       
H           -50.96222   63.66891    -5.99554    
H           -49.73      65.48       -2.37       
H           -48.78      66.03       -3.68       
H           -50.38346   66.68471    -3.47451    
H           -55.34      61.97       1.37        
H           -54.35      63.4        1.17        
H           -53.52457   61.82526    1.42049     
H           -54.13      59.89       -0.35       
H           -55.75      60.46       -0.45       
H           -54.75579   60.3326     -1.95592    
H           -45.29      63.06       -5.09       
H           -59.67      63.5        -0.3        
S           -45.77      61.08       -2.15       
C           -45.65      62.69       -4.16       
C           -44.87      61.97       -3.36       
C           -63.59      66.42       -2.86       
C           -63.29      66.07       -1.52       
C           -62.52      66.35       -3.74       
N           -64.24      66.2        -0.58       
N           -62.06      65.18       0.21        
S           -63.54      65.71       0.82        
H           -60.38      66.02       -4.06       
H           -62.65      66.6        -4.81       
C           -61.17      66.08       -3.26       
C           -62.02      65.61       -1.06       
C           -60.88      65.69       -1.96       
C           -77.94      66.12       -10.91      
C           -76.77      66.3        -11.61      
S           -77.64      65.89       -9.24       
C           -71.52      66.77       -8.86       
C           -72.55      66.41       -8.0        
C           -72.48      66.15       -6.62       
C           -71.24      66.35       -6.01       
C           -70.12      66.73       -6.83       
C           -70.23      66.89       -8.22       
C           -70.9       66.27       -4.52       
C           -69.45      66.67       -4.5        
C           -69.03      66.92       -5.87       
C           -71.81      66.71       -10.29      
C           -73.33      66.65       -10.13      
C           -73.72      66.37       -8.83       
C           -68.62      66.59       -3.45       
C           -67.27      66.76       -3.72       
C           -66.88      67.01       -5.03       
C           -67.69      67.11       -6.16       
C           -74.24      66.56       -11.17      
C           -75.58      66.32       -10.8       
C           -75.9       66.03       -9.43       
C           -74.98      66.07       -8.42       
C           -71.77      67.31       -3.75       
C           -71.0       64.86       -3.87       
C           -71.2       68.03       -10.93      
C           -71.29      65.43       -10.92      
H           -69.27      67.06       -8.75       
H           -73.31      65.96       -6.03       
H           -73.86      66.55       -12.24      
H           -75.22      65.77       -7.42       
H           -69.05      66.47       -2.48       
H           -67.23      67.07       -7.15       
H           -72.82      66.99       -3.8        
H           -71.37      67.39       -2.74       
H           -71.68193   68.2861     -4.22704    
H           -70.39      64.17       -4.4        
H           -70.7       64.82       -2.79       
H           -72.01263   64.46046    -3.81489    
H           -71.98      64.69       -10.61      
H           -70.42      65.06       -10.39      
H           -71.03596   65.48645    -11.97848   
H           -70.12      67.96       -10.88      
H           -71.41      68.22       -11.94      
H           -71.57439   68.90593    -10.4002    
H           -66.24      66.65       -1.73       
H           -76.78      66.37       -12.65      
S           -65.13      67.06       -5.07       
C           -66.17      66.73       -2.79       
C           -64.89      66.74       -3.39       
C           -82.14      65.35       -12.12      
C           -81.06      65.05       -13.04      
C           -81.75      65.92       -10.96      
N           -81.22      64.52       -14.27      
N           -78.78      64.8        -13.55      
S           -79.73      64.21       -14.84      
H           -80.35      66.53       -9.59       
H           -82.55      66.35       -10.29      
C           -80.46      66.13       -10.57      
C           -79.66      65.19       -12.62      
C           -79.35      65.76       -11.35      
C           -96.86      65.48       -19.62      
C           -95.96      66.47       -19.67      
S           -96.58      64.49       -18.23      
C           -90.86      66.64       -16.51      
C           -91.79      65.75       -15.97      
C           -91.44      64.84       -14.96      
C           -90.17      64.85       -14.42      
C           -89.33      65.9        -14.88      
C           -89.64      66.8        -15.91      
C           -89.44      63.95       -13.39      
C           -88.15      64.66       -13.16      
C           -88.07      65.77       -14.1       
C           -91.45      67.55       -17.57      
C           -92.86      67.05       -17.57      
C           -93.01      65.89       -16.78      
C           -87.07      64.23       -12.5       
C           -85.81      64.94       -12.61      
C           -85.76      66.05       -13.47      
C           -86.82      66.43       -14.28      
C           -93.76      67.21       -18.62      
C           -94.95      66.45       -18.65      
C           -95.15      65.41       -17.73      
C           -94.13      65.03       -16.83      
C           -90.18      63.88       -12.01      
C           -89.1       62.6        -14.08      
C           -91.49      68.98       -17.11      
C           -90.71      67.32       -18.98      
H           -88.91      67.41       -16.34      
H           -92.16      64.09       -14.57      
H           -93.6       68.02       -19.35      
H           -94.21      64.19       -16.13      
H           -87.11      63.36       -11.82      
H           -86.72      67.22       -15.1       
H           -91.23      63.57       -12.05      
H           -89.72      63.13       -11.35      
H           -90.18751   64.8791     -11.5743    
H           -88.89      62.71       -15.12      
H           -88.18      62.19       -13.65      
H           -89.84163   61.82128    -13.90201   
H           -89.64      67.76       -18.95      
H           -91.27      67.72       -19.77      
H           -90.68257   66.25711    -19.22001   
H           -90.45      69.44       -17.15      
H           -92.01      69.43       -17.99      
H           -91.97795   69.08764    -16.14128   
H           -84.4       63.91       -11.22      
H           -96.09      67.3        -20.47      
S           -84.12      66.59       -13.65      
C           -84.57      64.7        -11.95      
C           -83.56      65.39       -12.5       
C           -100.29     64.5        -22.12      
C           -99.2       65.13       -22.7       
C           -100.28     64.28       -20.77      
N           -98.94      65.39       -23.98      
N           -97.01      65.93       -22.55      
S           -97.5       66.13       -24.04      
H           -99.26      64.3        -18.96      
H           -101.19     63.96       -20.17      
C           -99.11      64.53       -20.0       
C           -98.02      65.39       -21.86      
C           -98.0       65.07       -20.47      
C           -111.57     59.02       -33.13      
C           -111.44     58.43       -31.93      
S           -110.71     60.51       -33.11      
C           -107.64     60.38       -27.44      
C           -107.9      61.27       -28.47      
C           -107.34     62.52       -28.56      
C           -106.54     62.99       -27.5       
C           -106.21     62.08       -26.49      
C           -106.87     60.79       -26.36      
C           -105.93     64.36       -27.15      
C           -104.86     63.92       -26.15      
C           -105.13     62.61       -25.67      
C           -108.56     59.19       -27.57      
C           -109.16     59.38       -29.0       
C           -108.64     60.57       -29.5       
C           -103.85     64.71       -25.7       
C           -103.07     64.24       -24.57      
C           -103.42     63.02       -24.03      
C           -104.33     62.14       -24.61      
C           -109.99     58.63       -29.77      
C           -110.41     59.08       -31.04      
C           -109.8      60.24       -31.64      
C           -108.94     61.0        -30.83      
C           -105.35     64.94       -28.47      
C           -106.92     65.47       -26.48      
C           -107.59     57.92       -27.6       
C           -109.57     59.15       -26.38      
H           -106.7      60.19       -25.44      
H           -107.51     63.2        -29.33      
H           -110.26     57.68       -29.42      
H           -108.41     61.86       -31.21      
H           -103.72     65.79       -26.06      
H           -104.61     61.19       -24.18      
H           -106.07     64.89       -29.3       
H           -105.09     66.06       -28.44      
H           -104.47437  64.481      -28.929     
H           -106.99     65.26       -25.38      
H           -106.49     66.44       -26.47      
H           -107.8949   65.46272    -26.96745   
H           -108.97     58.98       -25.48      
H           -109.96     60.12       -26.31      
H           -110.23376  58.29659    -26.51859   
H           -107.16     57.85       -26.61      
H           -108.09     56.94       -27.87      
H           -106.75056  58.00537    -28.29004   
H           -101.77     65.96       -24.03      
H           -112.22     57.73       -31.52      
S           -102.21     62.6        -22.86      
C           -102.03     64.94       -23.86      
C           -101.49     64.21       -22.86      
C           -115.0      59.45       -35.81      
C           -115.19     58.95       -34.49      
C           -113.74     59.71       -36.12      
N           -116.42     58.68       -34.01      
N           -114.57     58.41       -32.34      
S           -116.19     58.2        -32.41      
H           -111.62     59.72       -35.54      
H           -113.48     60.06       -37.07      
C           -112.63     59.56       -35.16      
C           -114.08     58.88       -33.51      
C           -112.71     59.14       -33.94      
C           -124.68     71.43       -41.15      
C           -123.41     71.47       -40.69      
S           -125.48     69.84       -40.76      
C           -120.16     66.41       -39.36      
C           -121.52     66.23       -39.23      
C           -122.06     64.94       -38.9       
C           -121.18     63.88       -38.67      
C           -119.74     64.15       -38.87      
C           -119.26     65.41       -39.11      
C           -121.49     62.38       -38.52      
C           -120.02     61.92       -38.28      
C           -119.08     62.93       -38.61      
C           -119.88     67.94       -39.46      
C           -121.27     68.58       -39.57      
C           -122.25     67.51       -39.57      
C           -119.49     60.71       -37.81      
C           -118.11     60.66       -37.52      
C           -117.28     61.57       -38.08      
C           -117.74     62.75       -38.63      
C           -121.61     69.89       -39.86      
C           -122.93     70.19       -40.27      
C           -123.95     69.15       -40.17      
C           -123.59     67.8        -39.89      
C           -122.42     62.19       -37.29      
C           -122.02     61.74       -39.8       
C           -119.09     68.37       -38.19      
C           -119.11     68.26       -40.82      
H           -118.2      65.59       -39.01      
H           -123.14     64.74       -38.88      
H           -120.86     70.69       -39.82      
H           -124.32     66.98       -39.74      
H           -120.19     60.02       -37.37      
H           -117.1      63.52       -39.04      
H           -122.88     61.17       -37.17      
H           -123.34     62.66       -37.57      
H           -121.97656  62.48078    -36.33769   
H           -122.69     62.31       -40.41      
H           -122.49     60.91       -39.33      
H           -121.27709  61.4167     -40.52915   
H           -118.84     69.3        -40.82      
H           -119.76     68.28       -41.68      
H           -118.22335  67.68586    -41.0889    
H           -118.94     69.41       -38.19      
H           -118.03     67.9        -38.26      
H           -119.40527  67.96158    -37.22985   
H           -117.9      58.84       -36.23      
H           -122.79     72.34       -40.91      
S           -115.6      61.31       -37.59      
C           -117.4      59.63       -36.77      
C           -116.06     59.87       -36.67      
C           -126.3      74.46       -43.93      
C           -127.16     73.57       -43.2       
C           -124.97     74.19       -43.68      
N           -128.56     73.69       -43.2       
N           -127.7      71.89       -41.7       
S           -129.13     72.48       -42.24      
H           -123.39     73.19       -42.63      
H           -124.15     74.86       -44.05      
C           -124.49     73.23       -42.7       
C           -126.66     72.62       -42.24      
C           -125.26     72.46       -41.98      
C           -126.33     89.82       -49.61      
C           -125.53     88.82       -50.01      
S           -127.66     89.12       -48.63      
C           -126.52     82.9        -48.81      
C           -127.48     83.8        -48.1       
C           -128.46     83.33       -47.29      
C           -128.48     81.9        -47.04      
C           -127.42     81.15       -47.55      
C           -126.58     81.6        -48.51      
C           -129.48     81.05       -46.14      
C           -128.69     79.73       -46.15      
C           -127.49     79.79       -46.95      
C           -125.48     83.61       -49.6       
C           -125.94     85.08       -49.34      
C           -127.16     85.1        -48.58      
C           -128.88     78.61       -45.41      
C           -127.95     77.58       -45.32      
C           -126.82     77.66       -46.17      
C           -126.62     78.74       -47.0       
C           -125.33     86.21       -49.82      
C           -125.94     87.53       -49.6       
C           -127.08     87.53       -48.84      
C           -127.69     86.35       -48.29      
C           -129.51     81.61       -44.71      
C           -130.91     80.86       -46.72      
C           -124.02     83.49       -49.02      
C           -125.57     83.27       -51.12      
H           -125.8      80.99       -48.85      
H           -129.17     83.96       -46.76      
H           -124.43     86.07       -50.45      
H           -128.49     86.48       -47.56      
H           -129.75     78.56       -44.86      
H           -125.76     78.79       -47.53      
H           -129.88     82.63       -44.72      
H           -130.15     81.01       -44.15      
H           -128.54875  81.5744     -44.19733   
H           -130.81     80.24       -47.6       
H           -131.57     80.45       -46.0       
H           -131.38519  81.77594    -47.07122   
H           -124.95     82.46       -51.27      
H           -125.36     84.17       -51.71      
H           -126.57557  82.9395     -51.38018   
H           -123.36     84.29       -49.29      
H           -123.51     82.61       -49.41      
H           -124.01269  83.46806    -47.93025   
H           -128.63     76.23       -43.68      
H           -124.66     88.92       -50.71      
S           -125.8      76.27       -45.98      
C           -127.85     76.45       -44.44      
C           -126.76     75.64       -44.63      
C           -126.64     94.12       -50.62      
C           -125.39     93.45       -50.52      
C           -127.68     93.31       -50.33      
N           -124.24     94.04       -50.82      
N           -124.0      91.54       -50.46      
S           -123.1      92.87       -50.86      
H           -128.57     91.54       -49.73      
H           -128.67     93.69       -50.54      
C           -127.59     92.0        -49.91      
C           -125.28     92.06       -50.24      
C           -126.38     91.3        -49.82      
H           32.19       52.91       11.19       
H           -126.79     95.1        -50.95      
