612

C           64.64       76.08       94.75       
C           64.6        77.44       94.89       
S           65.33       75.38       96.23       
C           65.61       80.31       100.16      
C           66.09       79.01       100.11      
C           66.77       78.44       101.23      
C           66.99       79.14       102.41      
C           66.6        80.47       102.45      
C           65.83       81.04       101.37      
C           67.79       78.77       103.66      
C           67.44       79.95       104.55      
C           66.89       81.0        103.77      
C           65.04       80.73       98.81       
C           65.37       79.49       97.95       
C           65.79       78.48       98.84       
C           67.79       80.17       105.86      
C           67.73       81.5        106.3       
C           67.18       82.53       105.56      
C           66.73       82.25       104.24      
C           65.13       79.24       96.6        
C           65.1        77.92       96.13       
C           65.48       76.94       97.05       
C           65.94       77.2        98.35       
C           67.39       77.48       104.38      
C           69.25       78.83       103.25      
C           63.51       80.96       98.83       
C           65.87       81.97       98.29       
H           65.38       82.0        101.45      
H           67.24       77.43       101.16      
H           64.91       80.03       95.99       
H           66.3        76.42       99.0        
H           68.15       79.44       106.61      
H           66.38       83.12       103.62      
H           67.64       76.57       103.85      
H           67.96       77.46       105.3       
H           66.32119    77.55585    104.57997   
H           69.42       79.7        102.55      
H           69.86       79.08       104.18      
H           69.64186    77.9038     102.82965   
H           66.2        82.57       99.11       
H           66.81       81.62       97.86       
H           65.45912    82.69426    97.58663    
H           63.31       81.87       99.4        
H           63.06       81.14       97.84       
H           62.95656    80.14009    99.28778    
H           68.55       81.25       108.31      
H           64.28       78.11       94.04       
S           67.1        84.02       106.52      
C           68.12       81.91       107.62      
C           67.85       83.23       107.9       
C           63.45       73.4        91.3        
C           63.66       74.79       91.14       
C           63.79       73.04       92.59       
N           63.63       75.35       89.9        
N           64.26       76.94       91.8        
S           63.87       76.98       90.19       
H           64.2        73.49       94.56       
H           63.62       72.05       92.96       
C           64.15       73.97       93.59       
C           64.03       75.7        92.21       
C           64.32       75.31       93.56       
C           64.6        59.16       83.03       
C           64.07       59.24       84.3        
S           64.6        60.74       82.35       
C           63.01       64.63       87.09       
C           63.45       64.71       85.73       
C           63.7        65.97       85.13       
C           63.6        67.06       85.95       
C           63.11       66.95       87.26       
C           62.83       65.76       87.8        
C           64.09       68.47       85.59       
C           63.5        69.26       86.81       
C           62.93       68.34       87.75       
C           62.7        63.13       87.49       
C           63.16       62.38       86.29       
C           63.46       63.36       85.26       
C           63.65       70.59       87.12       
C           63.34       71.02       88.41       
C           62.71       70.11       89.3        
C           62.53       68.78       88.99       
C           63.21       61.01       86.02       
C           63.72       60.59       84.78       
C           63.99       61.55       83.77       
C           63.84       62.9        83.98       
C           65.64       68.34       85.65       
C           63.59       69.05       84.27       
C           63.52       62.89       88.79       
C           61.12       62.91       87.69       
H           62.43       65.63       88.81       
H           63.98       66.02       84.13       
H           62.96       60.3        86.82       
H           64.04       63.69       83.22       
H           64.03       71.35       86.43       
H           62.23       68.09       89.74       
H           65.89       67.73       84.79       
H           66.01       67.86       86.56       
H           66.24615    69.24566    85.62861    
H           64.19       68.64       83.46       
H           63.67       70.13       84.16       
H           62.52162    68.93679    84.08604    
H           60.8        63.76       88.31       
H           60.43       63.12       86.85       
H           60.84199    61.99756    88.21751    
H           63.07       63.63       89.48       
H           63.28       61.87       89.03       
H           64.58827    63.09248    88.7132     
H           64.01       73.11       88.5        
H           64.04       58.36       84.92       
S           62.39       70.9        90.86       
C           63.5        72.32       88.98       
C           63.16       72.38       90.32       
C           67.0        55.99       81.1        
C           65.92       56.68       80.42       
C           67.17       56.43       82.42       
N           65.6        56.56       79.1        
N           64.11       58.17       80.23       
S           64.27       57.43       78.82       
H           66.66       57.69       84.02       
H           67.93       55.99       83.08       
C           66.4        57.45       82.99       
C           65.09       57.66       81.05       
C           65.32       58.07       82.39       
C           78.32       46.56       73.81       
C           77.38       47.27       73.07       
S           77.72       46.3        75.43       
C           72.57       50.08       75.64       
C           73.27       49.21       76.48       
C           72.95       49.08       77.82       
C           72.02       49.97       78.42       
C           71.42       50.94       77.57       
C           71.64       50.99       76.2        
C           71.79       50.23       79.87       
C           70.82       51.42       79.72       
C           70.6        51.8        78.37       
C           73.25       50.19       74.22       
C           74.22       49.0        74.28       
C           74.27       48.54       75.64       
C           70.21       52.18       80.68       
C           69.39       53.23       80.3        
C           69.2        53.49       78.93       
C           69.83       52.82       77.92       
C           75.21       48.71       73.41       
C           76.21       47.74       73.77       
C           76.28       47.3        75.13       
C           75.23       47.65       76.05       
C           71.02       49.07       80.61       
C           73.1        50.66       80.61       
C           72.24       50.03       73.05       
C           74.2        51.41       74.04       
H           71.12       51.74       75.6        
H           73.56       48.43       78.49       
H           75.22       49.09       72.38       
H           75.28       47.36       77.09       
H           70.33       51.97       81.77       
H           69.68       53.12       76.9        
H           71.6        48.17       80.51       
H           70.67       49.33       81.59       
H           70.12802    48.83981    80.02734    
H           73.56       51.32       79.87       
H           72.88       51.15       81.56       
H           73.77914    49.84359    80.85565    
H           74.48       51.76       73.05       
H           75.06       51.33       74.65       
H           73.75899    52.35708    74.35087    
H           71.48       50.84       73.0        
H           72.79       50.11       72.2        
H           71.6589     49.10992    73.11226    
H           68.71       54.07       82.29       
H           77.63       47.59       72.08       
S           68.18       54.91       78.77       
C           68.72       54.15       81.19       
C           67.87       54.98       80.53       
C           81.74       44.48       72.12       
C           81.74       44.89       73.47       
C           80.67       44.96       71.45       
N           82.72       44.5        74.4        
N           80.98       45.9        75.35       
S           82.27       45.05       75.93       
H           78.82       45.91       71.32       
H           80.61       44.67       70.41       
C           79.62       45.69       71.99       
C           80.72       45.66       74.08       
C           79.55       45.96       73.31       
C           85.91       30.52       65.0        
C           86.34       30.63       66.31       
S           85.87       32.06       64.09       
C           86.0        36.23       68.92       
C           85.9        36.15       67.51       
C           85.42       37.28       66.84       
C           85.15       38.44       67.59       
C           85.16       38.43       69.01       
C           85.64       37.35       69.69       
C           84.46       39.74       67.05       
C           84.4        40.52       68.39       
C           84.63       39.7        69.53       
C           86.47       34.82       69.41       
C           86.5        33.93       68.17       
C           86.21       34.75       67.06       
C           83.88       41.74       68.59       
C           83.6        42.2        69.88       
C           83.77       41.35       71.0        
C           84.34       40.11       70.83       
C           86.6        32.56       68.01       
C           86.4        32.04       66.68       
C           86.26       32.89       65.6        
C           86.18       34.28       65.74       
C           85.33       40.26       65.85       
C           82.98       39.61       66.66       
C           87.89       34.81       70.05       
C           85.44       34.16       70.41       
H           85.7        37.42       70.7        
H           85.3        37.38       65.75       
H           86.72       31.9        68.86       
H           85.93       34.9        64.89       
H           83.6        42.35       67.8        
H           84.54       39.52       71.66       
H           85.41       39.67       64.96       
H           84.8        41.09       65.29       
H           86.27362    40.66338    66.21737    
H           82.4        39.27       67.45       
H           82.69       40.62       66.33       
H           82.76341    38.89036    65.8705     
H           85.55       34.58       71.41       
H           85.57       33.02       70.45       
H           84.41402    34.27017    70.05883    
H           87.87       35.16       71.02       
H           88.08       33.74       70.17       
H           88.67194    35.27917    69.45288    
H           82.95       44.3        69.5        
H           86.36       29.83       67.04       
S           83.12       42.14       72.45       
C           83.08       43.47       70.24       
C           82.72       43.59       71.53       
C           85.4        27.56       61.83       
C           86.44       27.34       62.78       
C           84.51       28.54       62.15       
N           87.3        26.36       62.84       
N           87.56       27.93       64.75       
S           88.22       26.59       64.2        
H           83.9        30.22       63.43       
H           83.58       28.72       61.54       
C           84.65       29.42       63.29       
C           86.67       28.35       63.83       
C           85.76       29.42       64.05       
C           80.51       17.89       49.29       
C           80.31       19.23       49.32       
S           81.73       17.49       50.47       
C           82.76       23.13       53.39       
C           83.08       21.76       53.56       
C           83.74       21.27       54.66       
C           84.05       22.2        55.69       
C           83.67       23.55       55.54       
C           83.12       24.06       54.4        
C           84.89       21.99       56.94       
C           84.79       23.35       57.59       
C           84.02       24.21       56.78       
C           81.94       23.21       52.1        
C           81.76       21.84       51.63       
C           82.58       21.01       52.41       
C           85.25       23.58       58.83       
C           85.08       24.84       59.35       
C           84.46       25.83       58.52       
C           83.93       25.57       57.26       
C           80.92       21.33       50.63       
C           80.93       19.93       50.36       
C           81.83       19.12       51.08       
C           82.51       19.63       52.15       
C           84.28       20.89       57.81       
C           86.37       21.78       56.77       
C           80.5        23.65       52.36       
C           82.63       24.01       51.01       
H           82.98       25.15       54.29       
H           83.81       20.17       54.76       
H           80.35       22.08       50.06       
H           83.18       18.95       52.72       
H           85.79       22.78       59.39       
H           83.35       26.33       56.73       
H           84.33       19.97       57.35       
H           84.88       20.84       58.7        
H           83.26927    21.07249    58.17499    
H           86.91       22.63       56.53       
H           86.86       21.43       57.66       
H           86.61495    21.07483    55.97575    
H           82.11       24.96       50.9        
H           82.49       23.47       50.1        
H           83.6912     24.13272    51.22657    
H           80.49       24.76       52.53       
H           79.87       23.59       51.45       
H           80.05075    23.15728    53.22227    
H           86.0        24.67       61.3        
H           79.54       19.64       48.67       
S           84.42       27.36       59.35       
C           85.49       25.34       60.58       
C           85.25       26.67       60.71       
C           79.57       15.14       45.82       
C           78.58       16.06       46.36       
C           80.66       15.04       46.65       
N           77.39       16.22       45.87       
N           77.9        17.86       47.73       
S           76.76       17.58       46.59       
H           81.82       15.69       48.28       
H           81.43       14.32       46.42       
C           80.85       15.88       47.82       
C           78.83       16.94       47.51       
C           80.06       16.88       48.28       
C           79.76       2.32        35.25       
C           80.9        3.03        35.5        
S           78.29       3.06        35.98       
C           80.79       7.86        39.28       
C           79.53       7.36        38.9        
C           78.32       7.91        39.35       
C           78.34       8.99        40.22       
C           79.62       9.53        40.58       
C           80.8        9.0         40.11       
C           77.25       9.81        40.95       
C           78.06       10.89       41.68       
C           79.45       10.69       41.4        
C           81.88       7.19        38.43       
C           81.1        6.14        37.65       
C           79.74       6.25        37.97       
C           77.54       11.9        42.42       
C           78.49       12.75       43.05       
C           79.9        12.57       42.8        
C           80.41       11.61       41.85       
C           81.54       5.14        36.87       
C           80.62       4.27        36.26       
C           79.22       4.35        36.59       
C           78.81       5.34        37.5        
C           76.2        10.39       39.97       
C           76.51       9.03        42.09       
C           82.5        8.31        37.61       
C           82.86       6.71        39.48       
H           81.72       9.53        40.27       
H           77.43       7.44        39.1        
H           82.64       5.03        36.71       
H           77.81       5.4         37.74       
H           76.52       11.8        42.83       
H           81.51       11.42       41.65       
H           75.75       9.54        39.49       
H           75.42       10.97       40.48       
H           76.6136     11.1031     39.2569     
H           77.23       8.77        42.82       
H           75.74       9.59        42.63       
H           76.09514    8.05007     41.85396    
H           83.12       7.55        40.13       
H           82.31       5.92        40.08       
H           83.76406    6.28667     39.04232    
H           83.32       8.87        38.02       
H           81.74       9.08        37.28       
H           82.93194    8.04364     36.64533    
H           77.31       13.99       44.46       
H           81.9        2.65        35.3        
S           80.82       13.65       43.88       
C           78.32       13.74       44.12       
C           79.38       14.18       44.74       
C           78.61       -1.54       33.38       
C           79.82       -1.46       34.16       
C           77.94       -0.38       33.31       
N           80.68       -2.43       34.28       
N           81.53       -0.32       35.34       
S           82.0        -1.88       35.05       
H           77.59       1.65        33.82       
H           76.93       -0.4        32.91       
C           78.34       0.88        33.96       
C           80.32       -0.19       34.72       
C           79.51       1.05        34.56       
C           69.46       -13.44      26.7        
C           69.38       -12.17      26.25       
S           70.77       -13.71      27.77       
C           73.37       -8.06       28.37       
C           73.56       -9.34       28.91       
C           74.53       -9.63       29.85       
C           75.39       -8.56       30.32       
C           75.19       -7.32       29.75       
C           74.28       -7.08       28.73       
C           76.64       -8.46       31.15       
C           76.85       -7.0        31.36       
C           75.98       -6.33       30.45       
C           72.36       -8.04       27.16       
C           71.72       -9.41       27.35       
C           72.52       -10.18      28.25       
C           77.71       -6.41       32.16       
C           77.65       -4.95       32.17       
C           76.81       -4.29       31.22       
C           76.04       -4.96       30.31       
C           70.7        -9.97       26.67       
C           70.44       -11.41      26.84       
C           71.27       -12.1       27.73       
C           72.41       -11.52      28.34       
C           76.52       -9.2        32.53       
C           77.91       -8.96       30.44       
C           71.39       -6.85       27.18       
C           73.07       -8.22       25.77       
H           74.11       -6.08       28.37       
H           74.58       -10.64      30.24       
H           70.1        -9.4        25.95       
H           73.13       -12.17      28.87       
H           78.3        -6.93       32.94       
H           75.51       -4.45       29.53       
H           76.28       -10.25      32.44       
H           77.43       -9.06       33.08       
H           75.69825    -8.79276    33.11905    
H           78.11       -8.32       29.53       
H           78.72       -8.98       31.14       
H           77.75876    -9.93947    29.98628    
H           72.25       -8.43       25.08       
H           73.77       -9.02       25.62       
H           73.65263    -7.34606    25.47869    
H           71.31       -6.51       26.15       
H           71.86       -6.07       27.82       
H           70.38897    -7.03401    27.57011    
H           78.91       -4.26       33.81       
H           68.61       -11.8       25.56       
S           76.87       -2.53       31.43       
C           78.33       -3.97       32.97       
C           77.99       -2.7        32.78       
C           67.06       -16.76      25.08       
C           67.6        -16.81      26.38       
C           67.35       -15.59      24.44       
N           67.39       -17.81      27.27       
N           69.02       -16.16      28.09       
S           68.35       -17.58      28.54       
H           68.18       -13.66      24.37       
H           67.0        -15.41      23.39       
C           68.21       -14.56      24.93       
C           68.48       -15.82      26.92       
C           68.7        -14.59      26.16       
C           60.06       -28.44      15.36       
C           60.69       -27.26      14.94       
S           60.07       -28.48      17.11       
C           63.06       -23.16      18.77       
C           62.29       -24.13      19.41       
C           62.2        -24.09      20.8        
C           62.97       -23.21      21.58       
C           63.65       -22.21      20.83       
C           63.83       -22.21      19.45       
C           62.61       -22.66      22.98       
C           63.65       -21.55      23.08       
C           63.99       -21.12      21.79       
C           63.02       -23.33      17.23       
C           62.1        -24.5       17.06       
C           61.77       -24.99      18.36       
C           64.06       -20.81      24.18       
C           64.84       -19.61      23.98       
C           65.11       -19.15      22.68       
C           64.59       -19.85      21.58       
C           61.73       -25.11      15.9        
C           61.04       -26.33      15.96       
C           60.79       -26.89      17.21       
C           61.09       -26.21      18.38       
C           61.15       -22.11      22.89       
C           62.79       -23.81      24.08       
C           62.59       -21.99      16.56       
C           64.46       -23.6       16.72       
H           64.32       -21.45      18.9        
H           61.68       -24.89      21.33       
H           62.04       -24.63      14.95       
H           60.99       -26.73      19.31       
H           63.94       -21.2       25.17       
H           64.83       -19.61      20.61       
H           60.37       -22.86      22.79       
H           61.01       -21.34      22.13       
H           60.92324    -21.58563   23.81828    
H           62.19       -24.7       23.91       
H           62.55       -23.31      25.07       
H           63.84465    -24.08079   24.12988    
H           64.99       -22.69      16.49       
H           64.33       -24.18      15.79       
H           64.89384    -24.35921   17.37075    
H           63.31       -21.21      16.79       
H           62.49       -21.9       15.48       
H           61.63797    -21.62938   16.94947    
H           65.4        -18.97      26.0        
H           60.97       -27.2       13.94       
S           66.1        -17.72      22.7        
C           65.51       -18.78      24.94       
C           66.3        -17.78      24.46       
C           57.22       -31.18      13.42       
C           58.39       -30.77      12.73       
C           57.11       -30.64      14.69       
N           58.63       -31.08      11.46       
N           60.21       -29.31      12.42       
S           59.95       -30.14      11.05       
H           58.04       -29.69      16.31       
H           56.29       -30.9       15.28       
C           58.18       -29.97      15.31       
C           59.33       -29.82      13.3        
C           59.26       -29.48      14.68       
C           43.55       -35.68      5.68        
C           43.42       -34.79      6.69        
S           44.88       -36.8       5.93        
C           48.09       -33.67      10.39       
C           48.19       -34.88      9.66        
C           49.25       -35.76      9.8         
C           50.39       -35.23      10.42       
C           50.36       -33.97      11.05       
C           49.13       -33.26      11.14       
C           51.83       -35.75      10.32       
C           52.55       -34.67      11.13       
C           51.65       -33.67      11.63       
C           46.83       -32.88      10.0        
C           46.09       -33.93      9.2         
C           46.96       -35.02      8.88        
C           53.88       -34.48      11.37       
C           54.34       -33.31      12.04       
C           53.44       -32.36      12.44       
C           52.04       -32.54      12.23       
C           44.85       -33.85      8.57        
C           44.55       -34.82      7.57        
C           45.42       -35.9       7.31        
C           46.66       -35.99      7.96        
C           51.88       -37.2       10.87       
C           52.19       -35.86      8.78        
C           46.06       -32.5       11.28       
C           47.22       -31.66      9.05        
H           49.13       -32.46      11.81       
H           49.32       -36.76      9.4         
H           44.14       -33.02      8.72        
H           47.35       -36.81      7.7         
H           54.67       -35.26      11.1        
H           51.32       -31.76      12.3        
H           52.53       -37.86      10.26       
H           50.93       -37.63      10.59       
H           51.95867    -37.2143    11.95706    
H           51.69       -36.76      8.3         
H           53.2        -36.16      8.67        
H           51.96505    -34.96722   8.19653     
H           46.97       -30.89      9.7         
H           46.66       -31.61      8.13        
H           48.24518    -31.65288   8.6798      
H           46.53       -31.73      11.96       
H           45.11       -32.09      10.86       
H           45.77875    -33.38075   11.8573     
H           56.51       -33.68      12.02       
H           42.71       -33.93      6.61        
S           54.39       -31.14      13.25       
C           55.71       -33.01      12.33       
C           55.96       -31.85      12.92       
C           41.46       -35.1       1.87        
C           42.64       -35.88      1.93        
C           40.86       -34.89      3.1         
N           43.31       -36.39      0.85        
N           44.44       -36.81      3.02        
S           44.64       -37.17      1.47        
H           41.04       -34.91      5.18        
H           39.86       -34.45      3.19        
C           41.54       -35.23      4.3         
C           43.32       -36.18      3.2         
C           42.8        -35.66      4.4         
C           38.17       -24.59      -10.46      
C           37.57       -24.46      -9.19       
S           39.38       -25.81      -10.47      
C           38.39       -28.69      -4.9        
C           39.08       -28.96      -6.12       
C           39.82       -30.19      -6.28       
C           39.83       -31.1       -5.19       
C           39.11       -30.78      -4.06       
C           38.44       -29.62      -3.86       
C           40.75       -32.3       -4.97       
C           40.13       -32.89      -3.7        
C           39.41       -31.84      -3.06       
C           37.6        -27.35      -4.95       
C           38.07       -26.85      -6.33       
C           38.9        -27.78      -6.99       
C           40.68       -33.92      -2.94       
C           40.5        -33.96      -1.6        
C           39.8        -32.96      -0.97       
C           39.22       -31.86      -1.66       
C           37.74       -25.65      -6.95       
C           38.13       -25.42      -8.28       
C           39.02       -26.34      -8.84       
C           39.51       -27.51      -8.23       
C           40.56       -33.35      -6.06       
C           42.25       -31.96      -4.68       
C           36.06       -27.54      -4.94       
C           38.11       -26.46      -3.78       
H           38.0        -29.49      -2.92       
H           40.43       -30.42      -7.13       
H           37.09       -25.03      -6.36       
H           40.17       -28.18      -8.7        
H           41.39       -34.58      -3.43       
H           38.77       -31.04      -1.19       
H           40.67       -32.87      -7.02       
H           41.28       -34.14      -5.93       
H           39.55575    -33.77322   -6.03848    
H           42.15       -31.34      -3.72       
H           42.88       -32.84      -4.56       
H           42.68142    -31.28105   -5.41553    
H           37.88       -27.05      -2.82       
H           39.14       -26.29      -3.89       
H           37.59488    -25.51444   -3.61065    
H           35.88       -28.13      -4.07       
H           35.52       -26.55      -4.8        
H           35.70073    -28.09963   -5.80362    
H           41.57       -35.77      -0.92       
H           36.72       -23.79      -8.9        
S           39.76       -33.19      0.81        
C           40.99       -34.95      -0.66       
C           40.76       -34.64      0.69        
C           37.13       -22.02      -14.08      
C           36.22       -22.19      -12.98      
C           38.23       -22.89      -14.02      
N           35.09       -21.48      -12.84      
N           35.58       -23.0       -10.87      
S           34.5        -21.81      -11.3       
H           39.27       -24.4       -12.86      
H           38.98       -22.9       -14.81      
C           38.47       -23.7       -12.86      
C           36.59       -22.98      -11.8       
C           37.78       -23.77      -11.69      
H           68.02       83.64       108.9       
H           36.87       -21.62      -15.1       
