612

C           32.77       0.28        56.63       
C           31.98       -0.27       57.58       
S           32.02       0.22        55.02       
C           26.28       -2.09       56.42       
C           26.93       -1.38       55.41       
C           26.23       -1.1        54.26       
C           24.88       -1.49       54.19       
C           24.19       -2.19       55.22       
C           24.94       -2.49       56.36       
C           23.85       -1.17       53.16       
C           22.52       -1.68       53.74       
C           22.75       -2.43       54.93       
C           27.19       -2.13       57.64       
C           28.42       -1.32       57.11       
C           28.3        -1.11       55.72       
C           21.23       -1.55       53.22       
C           20.18       -2.38       53.81       
C           20.54       -3.23       54.87       
C           21.79       -3.17       55.48       
C           29.6        -1.08       57.8        
C           30.67       -0.66       57.05       
C           30.5        -0.38       55.62       
C           29.33       -0.57       54.96       
C           23.75       0.35        52.92       
C           24.03       -1.95       51.78       
C           26.49       -1.42       58.87       
C           27.44       -3.68       57.92       
H           24.37       -2.9        57.2        
H           26.73       -0.74       53.34       
H           29.68       -1.18       58.85       
H           29.21       -0.42       53.93       
H           21.03       -0.86       52.44       
H           21.88       -3.59       56.42       
H           24.62       0.78        52.54       
H           22.99       0.58        52.18       
H           23.57527    0.95805     53.80761    
H           23.75       -2.98       51.87       
H           23.21       -1.73       51.11       
H           24.98686    -1.88525    51.262      
H           26.46       -4.16       58.11       
H           27.82       -4.09       57.06       
H           28.11476    -3.88762    58.75048    
H           25.63       -2.03       59.18       
H           27.25       -1.38       59.66       
H           26.09967    -0.41223    58.72806    
H           18.4        -1.8        52.75       
H           32.22       -0.31       58.71       
S           19.07       -4.11       55.38       
C           18.8        -2.42       53.51       
C           18.07       -3.37       54.15       
C           37.01       1.58        56.67       
C           36.41       0.97        57.77       
C           36.09       1.87        55.67       
N           37.11       0.73        58.89       
N           34.78       0.02        58.99       
S           36.18       -0.12       59.9        
H           34.13       1.64        54.81       
H           36.39       2.43        54.78       
C           34.7        1.46        55.67       
C           35.03       0.68        57.89       
C           34.14       0.78        56.7        
C           51.92       7.76        52.5        
C           50.84       7.71        51.72       
S           51.55       7.06        54.06       
C           45.65       4.96        53.23       
C           46.53       5.1         54.29       
C           46.18       4.63        55.55       
C           45.0        3.95        55.74       
C           44.15       3.7         54.63       
C           44.51       4.23        53.36       
C           44.32       3.56        57.08       
C           43.09       2.86        56.54       
C           42.89       3.12        55.12       
C           46.05       5.94        52.07       
C           47.41       6.26        52.47       
C           47.76       5.79        53.82       
C           42.05       2.29        57.29       
C           40.73       2.2         56.76       
C           40.61       2.55        55.4        
C           41.65       2.99        54.53       
C           48.42       6.8         51.66       
C           49.66       7.1         52.25       
C           49.95       6.68        53.58       
C           49.07       6.0         54.37       
C           45.29       2.73        57.95       
C           43.88       4.88        57.75       
C           46.01       5.24        50.68       
C           45.01       7.16        52.11       
H           43.87       4.19        52.5        
H           46.82       4.81        56.44       
H           48.18       6.95        50.63       
H           49.38       5.5         55.28       
H           42.21       2.17        58.32       
H           41.52       3.15        53.46       
H           46.25       3.2         58.11       
H           44.75       2.64        58.94       
H           45.46391    1.75902     57.48625    
H           44.73       5.46        58.17       
H           43.21       4.62        58.57       
H           43.38936    5.61951     57.11715    
H           43.98       6.94        51.91       
H           45.09       7.74        53.09       
H           45.22963    7.93933     51.38027    
H           45.0        5.15        50.3        
H           46.6        5.69        49.83       
H           46.45787    4.24629     50.687      
H           39.48       1.23        58.28       
H           50.95       7.96        50.68       
S           38.92       2.29        54.84       
C           39.49       1.7         57.29       
C           38.43       1.9         56.52       
C           56.04       9.07        51.37       
C           55.64       8.78        52.74       
C           55.06       8.68        50.47       
N           56.51       8.93        53.74       
N           54.23       8.25        54.49       
S           55.72       8.63        55.12       
H           52.94       8.08        50.09       
H           55.21       8.84        49.44       
C           53.71       8.24        50.88       
C           54.34       8.31        53.15       
C           53.31       8.08        52.14       
C           71.59       13.56       48.13       
C           70.94       12.68       47.35       
S           70.51       14.38       49.33       
C           64.93       11.56       47.84       
C           65.41       12.59       48.72       
C           64.56       13.38       49.56       
C           63.23       13.03       49.65       
C           62.74       11.95       48.82       
C           63.54       11.28       47.86       
C           62.14       13.56       50.64       
C           61.11       12.43       50.45       
C           61.34       11.63       49.25       
C           66.05       11.06       46.94       
C           67.25       11.77       47.54       
C           66.87       12.73       48.53       
C           59.94       12.19       51.17       
C           59.12       11.1        50.79       
C           59.3        10.49       49.52       
C           60.36       10.76       48.71       
C           68.6        11.73       47.06       
C           69.57       12.67       47.61       
C           69.15       13.56       48.63       
C           67.81       13.63       49.06       
C           62.78       13.55       52.05       
C           61.63       14.98       50.22       
C           66.25       9.55        47.24       
C           65.9        11.44       45.44       
H           63.12       10.37       47.38       
H           64.98       14.18       50.15       
H           68.92       11.01       46.27       
H           67.52       14.4        49.73       
H           59.71       12.75       52.09       
H           60.55       10.29       47.74       
H           62.09       14.06       52.68       
H           63.64       14.26       52.12       
H           63.06167    12.54612    52.36778    
H           61.17       14.81       49.3        
H           60.79       15.27       50.96       
H           62.4059     15.74139    50.14023    
H           65.33       10.63       44.93       
H           66.81       11.55       44.97       
H           65.34303    12.37329    45.35721    
H           65.47       8.92        46.71       
H           67.11       9.1         46.77       
H           66.30739    9.4424      48.32316    
H           57.59       11.13       52.48       
H           71.38       11.99       46.68       
S           58.02       9.28        49.38       
C           57.97       10.65       51.52       
C           57.27       9.74        50.89       
C           75.91       13.55       48.62       
C           75.3        13.24       47.43       
C           75.0        13.83       49.57       
N           75.96       12.92       46.36       
N           73.6        12.81       45.98       
S           74.98       12.66       45.08       
H           72.94       14.01       50.36       
H           75.44       13.99       50.54       
C           73.55       13.85       49.44       
C           73.86       13.23       47.17       
C           73.02       13.69       48.2        
C           92.28       13.08       51.32       
C           91.42       13.7        52.19       
S           91.44       11.95       50.25       
C           85.35       13.38       51.59       
C           86.05       12.48       50.77       
C           85.37       11.54       49.96       
C           84.03       11.73       49.77       
C           83.38       12.76       50.49       
C           83.99       13.65       51.35       
C           83.11       11.18       48.73       
C           81.87       11.93       49.06       
C           81.96       12.88       50.16       
C           86.2        14.12       52.62       
C           87.59       13.69       52.1        
C           87.48       12.7        51.06       
C           80.64       11.69       48.52       
C           79.59       12.47       48.98       
C           79.73       13.52       49.89       
C           80.98       13.7        50.54       
C           88.83       14.07       52.53       
C           90.01       13.47       51.89       
C           89.86       12.53       50.84       
C           88.57       12.1        50.46       
C           83.59       11.62       47.3        
C           82.88       9.71        48.71       
C           86.11       15.6        52.47       
C           85.95       13.61       54.08       
H           83.43       14.3        51.93       
H           86.0        10.88       49.35       
H           88.9        14.72       53.41       
H           88.39       11.28       49.71       
H           80.47       10.92       47.8        
H           81.11       14.37       51.36       
H           84.55       11.2        47.04       
H           82.82       11.16       46.56       
H           83.68435    12.69411    47.14034    
H           82.31       9.66        49.57       
H           82.47       9.55        47.72       
H           83.67182    9.00456     48.96194    
H           86.53       14.2        54.81       
H           86.29       12.52       54.18       
H           84.92371    13.67505    54.44137    
H           85.07       15.93       52.85       
H           86.7        16.08       53.2        
H           86.30757    15.98102    51.46806    
H           78.03       11.69       47.61       
H           91.71       14.45       52.92       
S           78.18       14.33       50.14       
C           78.3        12.37       48.4        
C           77.36       13.29       48.92       
C           96.67       12.7        51.1        
C           96.08       13.21       52.33       
C           95.83       12.51       50.05       
N           96.71       13.59       53.46       
N           94.28       14.02       53.52       
S           95.58       14.13       54.48       
H           93.87       12.35       49.26       
H           96.21       12.32       48.97       
C           94.45       12.66       50.14       
C           94.63       13.42       52.4        
C           93.75       13.09       51.3        
C           110.02      16.15       42.11       
C           109.01      15.24       41.72       
S           109.82      16.56       43.83       
C           104.55      13.25       45.46       
C           105.45      14.27       45.97       
C           105.23      14.73       47.21       
C           104.16      14.38       48.04       
C           103.37      13.32       47.52       
C           103.5       12.75       46.22       
C           103.8       14.67       49.51       
C           102.58      13.79       49.69       
C           102.36      13.06       48.49       
C           104.85      13.01       43.96       
C           106.01      14.03       43.82       
C           106.41      14.72       45.01       
C           101.61      13.94       50.68       
C           100.42      13.18       50.56       
C           100.23      12.36       49.4        
C           101.23      12.28       48.39       
C           106.81      14.17       42.7        
C           108.0       15.02       42.72       
C           108.33      15.66       43.98       
C           107.53      15.53       45.12       
C           105.01      14.29       50.4        
C           103.37      16.16       49.63       
C           105.42      11.58       43.64       
C           103.57      13.42       43.23       
H           102.9       11.9        45.89       
H           106.03      15.36       47.63       
H           106.66      13.67       41.77       
H           107.82      15.94       46.06       
H           101.78      14.8        51.37       
H           101.05      11.62       47.5        
H           105.84      15.07       50.35       
H           105.5       13.4        50.03       
H           104.85393   14.11265    51.46409    
H           102.47      16.34       49.0        
H           103.06      16.32       50.66       
H           104.12013   16.88209    49.30751    
H           102.59      13.0        43.63       
H           103.39      14.47       43.32       
H           103.52484   13.2544     42.1536     
H           106.18      11.54       44.36       
H           105.94      11.53       42.7        
H           104.70528   10.78201    43.84123    
H           99.09       14.08       52.03       
H           108.87      14.92       40.74       
S           98.71       11.55       49.46       
C           99.18       13.28       51.33       
C           98.12       12.57       50.8        
C           112.6       18.61       39.48       
C           112.04      17.35       39.06       
C           112.24      18.91       40.76       
N           112.11      16.87       37.83       
N           111.0       15.23       39.34       
S           111.45      15.35       37.81       
H           111.28      18.48       42.59       
H           112.49      19.85       41.16       
C           111.47      18.09       41.57       
C           111.28      16.44       39.95       
C           110.96      16.91       41.25       
C           113.14      28.96       27.21       
C           113.09      29.48       28.45       
S           114.0       27.4        27.22       
C           113.97      26.2        33.44       
C           114.51      25.64       32.26       
C           115.02      24.34       32.19       
C           115.1       23.66       33.37       
C           114.5       24.17       34.56       
C           114.03      25.46       34.66       
C           115.44      22.15       33.45       
C           115.04      21.84       34.87       
C           114.42      22.97       35.49       
C           113.38      27.58       33.18       
C           113.7       27.75       31.68       
C           114.26      26.57       31.2        
C           115.0       20.61       35.49       
C           114.38      20.49       36.71       
C           113.73      21.66       37.24       
C           113.79      22.92       36.63       
C           113.25      28.7        30.85       
C           113.46      28.56       29.51       
C           113.99      27.4        28.96       
C           114.33      26.34       29.82       
C           114.49      21.26       32.55       
C           116.94      21.83       33.39       
C           111.85      27.65       33.47       
C           114.09      28.77       33.84       
H           113.52      25.74       35.59       
H           115.39      24.04       31.24       
H           112.89      29.61       31.21       
H           114.82      25.43       29.45       
H           115.37      19.76       34.92       
H           113.31      23.82       37.03       
H           114.75      21.36       31.5        
H           114.6       20.27       32.89       
H           113.44134   21.54801    32.62385    
H           117.31      22.56       34.15       
H           117.21      20.84       33.77       
H           117.40986   22.04039    32.42924    
H           113.59      29.71       33.56       
H           115.09      28.86       33.45       
H           114.09739   28.68132    34.92636    
H           111.65      27.98       34.45       
H           111.47      28.46       32.79       
H           111.33568   26.70709    33.28427    
H           114.63      18.39       37.37       
H           112.61      30.41       28.6        
S           112.93      21.23       38.78       
C           114.13      19.36       37.54       
C           113.34      19.55       38.62       
C           112.92      30.55       23.14       
C           112.29      29.29       23.44       
C           113.48      31.15       24.23       
N           111.77      28.43       22.55       
N           111.52      27.71       25.01       
S           111.12      27.24       23.5        
H           114.03      31.08       26.36       
H           114.06      32.08       24.12       
C           113.43      30.62       25.56       
C           112.12      28.88       24.81       
C           112.77      29.51       25.9        
C           119.7       36.35       9.11        
C           120.25      36.64       10.31       
S           118.44      35.18       9.22        
C           117.34      35.03       15.51       
C           116.93      34.42       14.33       
C           116.03      33.39       14.28       
C           115.65      32.82       15.45       
C           115.83      33.6        16.68       
C           116.7       34.72       16.69       
C           114.94      31.49       15.81       
C           114.44      31.79       17.31       
C           115.16      32.93       17.77       
C           118.45      36.05       15.21       
C           118.59      35.85       13.66       
C           117.61      34.98       13.2        
C           113.63      31.06       18.13       
C           113.56      31.39       19.5        
C           114.21      32.58       20.0        
C           115.04      33.34       19.11       
C           119.48      36.39       12.8        
C           119.52      36.07       11.42       
C           118.5       35.23       10.98       
C           117.51      34.69       11.82       
C           113.75      31.22       14.81       
C           115.87      30.32       15.79       
C           118.0       37.5        15.63       
C           119.82      35.66       15.89       
H           116.86      35.24       17.64       
H           115.82      32.87       13.32       
H           120.17      37.11       13.2        
H           116.74      34.06       11.44       
H           113.23      30.11       17.77       
H           115.51      34.22       19.56       
H           114.18      31.09       13.84       
H           113.19      30.34       15.14       
H           113.04542   32.0514     14.78886    
H           116.32      30.34       16.78       
H           115.24      29.39       15.73       
H           116.581     30.29845    14.96409    
H           120.64      36.25       15.52       
H           120.0       34.61       15.7        
H           119.82703   35.78654    16.97261    
H           118.85      38.16       15.85       
H           117.35      37.44       16.48       
H           117.37007   37.93611    14.8547     
H           112.73      29.58       20.46       
H           120.96      37.42       10.41       
S           113.89      32.71       21.76       
C           113.0       30.6        20.62       
C           113.21      31.1        21.85       
C           119.46      39.07       5.72        
C           119.31      37.66       5.49        
C           119.84      39.41       6.98        
N           118.96      37.03       4.35        
N           119.34      35.44       6.27        
S           119.17      35.43       4.63        
H           120.28      38.88       9.0         
H           119.89      40.48       7.21        
C           120.13      38.48       8.04        
C           119.52      36.72       6.61        
C           119.9       37.12       7.91        
C           110.94      51.61       -0.66       
C           112.02      51.75       0.19        
S           110.9       49.98       -1.29       
C           116.04      47.4        1.72        
C           115.03      47.02       0.75        
C           114.93      45.71       0.39        
C           115.81      44.76       0.96        
C           116.74      45.16       1.93        
C           116.95      46.51       2.31        
C           115.72      43.25       0.8         
C           116.64      42.83       1.9         
C           117.39      43.94       2.44        
C           115.84      48.89       2.07        
C           114.57      49.26       1.27        
C           114.13      48.17       0.49        
C           116.84      41.52       2.26        
C           117.87      41.28       3.16        
C           118.6       42.32       3.74        
C           118.36      43.65       3.38        
C           113.9       50.47       1.24        
C           112.8       50.6        0.38        
C           112.3       49.5        -0.32       
C           112.96      48.25       -0.27       
C           114.29      42.62       1.02        
C           116.39      42.63       -0.46       
C           115.71      49.24       3.54        
C           116.85      49.88       1.4         
H           117.76      46.91       2.91        
H           114.12      45.29       -0.2        
H           114.21      51.28       1.89        
H           112.54      47.44       -0.84       
H           116.28      40.72       1.83        
H           118.95      44.45       3.88        
H           114.32      41.58       0.7         
H           113.47      43.0        0.36        
H           114.03824   42.71791    2.076       
H           116.0       41.68       -0.72       
H           117.38      42.37       -0.1        
H           116.42515   43.36806    -1.26133    
H           117.51      50.35       2.09        
H           116.37      50.67       0.72        
H           117.41502   49.36634    0.62218     
H           115.51      50.35       3.73        
H           116.75      49.13       3.9         
H           114.94072   48.65216    4.04075     
H           117.59      39.13       3.53        
H           112.23      52.67       0.68        
S           119.69      41.78       4.99        
C           118.13      40.02       3.79        
C           119.03      40.14       4.78        
C           107.57      54.3        -1.52       
C           108.83      54.76       -1.12       
C           107.55      52.95       -1.62       
N           109.15      56.03       -0.91       
N           111.04      54.61       -0.59       
S           110.7       56.21       -0.53       
H           108.3       51.04       -1.36       
H           106.63      52.44       -1.89       
C           108.63      52.07       -1.35       
C           109.94      53.88       -0.89       
C           109.85      52.47       -1.02       
C           95.47       63.21       -8.55       
C           96.8        63.5        -8.65       
S           95.28       61.73       -7.6        
C           101.32      59.89       -7.01       
C           100.11      59.55       -6.45       
C           99.87       58.54       -5.46       
C           100.91      57.96       -4.93       
C           102.21      58.25       -5.47       
C           102.42      59.19       -6.51       
C           100.94      56.78       -3.88       
C           102.43      56.65       -3.69       
C           103.14      57.47       -4.63       
C           101.3       61.24       -7.79       
C           99.8        61.43       -7.84       
C           99.13       60.42       -7.13       
C           103.05      55.99       -2.65       
C           104.38      55.9        -2.6        
C           105.14      56.6        -3.57       
C           104.54      57.41       -4.57       
C           99.11       62.5        -8.25       
C           97.71       62.48       -8.21       
C           97.06       61.49       -7.48       
C           97.77       60.39       -7.03       
C           100.22      57.15       -2.55       
C           100.59      55.39       -4.41       
C           102.12      62.33       -7.0        
C           101.75      61.15       -9.29       
H           103.48      59.41       -6.63       
H           98.88       58.28       -5.02       
H           99.69       63.26       -8.72       
H           97.3        59.62       -6.48       
H           102.51      55.39       -1.99       
H           105.1       57.91       -5.37       
H           99.15       57.13       -2.73       
H           100.49      56.45       -1.74       
H           100.46881   58.15196    -2.20032    
H           101.43      55.23       -5.14       
H           100.65      54.7        -3.55       
H           99.57147    55.21068    -4.75429    
H           101.7       62.09       -9.77       
H           101.16      60.42       -9.84       
H           102.78976   60.83472    -9.37721    
H           103.13      61.94       -6.89       
H           102.27      63.33       -7.47       
H           101.69815   62.4974     -6.00898    
H           104.8       54.38       -1.09       
H           97.14       64.32       -9.28       
S           106.84      56.19       -3.51       
C           105.22      55.1        -1.78       
C           106.54      55.2        -2.04       
C           91.8        65.27       -9.82       
C           93.14       65.65       -10.26      
C           91.81       64.18       -8.93       
N           93.27       66.62       -11.22      
N           95.46       65.58       -10.43      
S           94.87       66.69       -11.55      
H           92.84       62.68       -7.81       
H           90.88       63.79       -8.45       
C           93.02       63.48       -8.54       
C           94.38       64.98       -9.83       
C           94.29       63.88       -8.96       
C           77.13       73.34       -10.65      
C           77.43       72.27       -9.85       
S           78.5        73.66       -11.78      
C           82.91       69.49       -9.59       
C           82.78       70.41       -10.76      
C           83.79       70.5        -11.7       
C           84.87       69.64       -11.58      
C           85.04       68.78       -10.46      
C           84.07       68.77       -9.47       
C           86.07       69.53       -12.59      
C           86.96       68.58       -11.77      
C           86.35       68.12       -10.55      
C           81.61       69.43       -8.73       
C           80.72       70.33       -9.52       
C           81.42       71.03       -10.65      
C           88.15       68.1        -12.16      
C           88.85       67.17       -11.31      
C           88.18       66.75       -10.09      
C           86.98       67.27       -9.7        
C           79.38       70.69       -9.21       
C           78.78       71.75       -9.93       
C           79.46       72.4        -11.01      
C           80.8        72.1        -11.3       
C           85.56       68.93       -13.95      
C           86.77       70.91       -12.85      
C           81.09       67.98       -8.56       
C           81.88       70.07       -7.35       
H           84.23       68.19       -8.59       
H           83.57       70.91       -12.69      
H           78.9        70.11       -8.41       
H           81.32       72.56       -12.17      
H           88.63       68.52       -13.0       
H           86.48       67.06       -8.75       
H           86.27       69.13       -14.74      
H           84.64       69.4        -14.29      
H           85.24122    67.89212    -13.85363   
H           86.19       71.49       -13.5       
H           87.8        70.74       -13.15      
H           86.81969    71.49917    -11.9343    
H           82.32       69.33       -6.64       
H           80.99       70.54       -6.98       
H           82.60599    70.88225    -7.38594    
H           81.99       67.4        -8.3        
H           80.41       67.93       -7.71       
H           80.75783    67.60543    -9.52823    
H           90.93       66.69       -12.18      
H           76.76       71.94       -9.05       
S           89.23       65.71       -9.15       
C           90.2        66.55       -11.4       
C           90.52       65.81       -10.3       
C           73.98       76.25       -10.64      
C           74.04       75.35       -9.57       
C           74.9        76.17       -11.56      
N           73.17       75.39       -8.52       
N           74.95       73.54       -8.33       
S           73.68       74.27       -7.5        
H           76.66       75.27       -12.35      
H           74.95       76.95       -12.26      
C           75.92       75.22       -11.47      
C           75.06       74.27       -9.47       
C           76.01       74.23       -10.54      
H           17.04       -3.41       54.25       
H           72.97       76.79       -10.86      
