612

C           42.11       72.23       51.18       
C           42.02       71.92       52.52       
S           42.9        70.91       50.34       
C           44.05       66.77       55.03       
C           44.08       66.86       53.64       
C           44.46       65.71       52.86       
C           44.82       64.5        53.53       
C           44.83       64.48       54.95       
C           44.39       65.57       55.68       
C           45.33       63.22       52.91       
C           45.65       62.47       54.22       
C           45.34       63.21       55.38       
C           43.25       67.94       55.57       
C           43.1        68.78       54.33       
C           43.52       68.13       53.17       
C           46.23       61.21       54.36       
C           46.4        60.76       55.71       
C           46.05       61.55       56.86       
C           45.54       62.78       56.69       
C           42.52       70.04       54.18       
C           42.42       70.62       52.89       
C           42.84       69.83       51.76       
C           43.41       68.65       51.89       
C           44.17       62.56       52.18       
C           46.66       63.43       52.07       
C           41.93       67.56       56.28       
C           44.13       68.72       56.54       
H           44.67       65.64       56.74       
H           44.55       65.84       51.76       
H           42.38       70.64       55.08       
H           43.83       68.03       51.07       
H           46.62       60.68       53.5        
H           45.36       63.42       57.54       
H           43.89       63.13       51.31       
H           44.42       61.54       51.89       
H           43.28224    62.53869    52.81208    
H           47.32       63.94       52.76       
H           47.09       62.41       51.87       
H           46.5816     63.93605    51.10778    
H           43.86       68.56       57.62       
H           43.92       69.74       56.38       
H           45.19826    68.6203     56.34771    
H           42.29       66.87       57.09       
H           41.67       68.43       56.85       
H           41.18389    67.0697     55.65469    
H           47.2        58.72       55.36       
H           41.59       72.5        53.28       
S           46.52       60.69       58.35       
C           46.96       59.49       56.12       
C           47.13       59.28       57.46       
C           41.27       75.81       48.96       
C           40.68       75.67       50.27       
C           42.18       74.87       48.56       
N           39.93       76.55       50.93       
N           40.36       74.52       52.25       
S           39.61       75.96       52.37       
H           43.13       73.04       48.99       
H           42.7        74.97       47.64       
C           42.35       73.7        49.3        
C           40.88       74.46       51.04       
C           41.75       73.47       50.5        
C           45.0        89.17       40.05       
C           44.92       87.9        39.53       
S           44.74       89.2        41.75       
C           42.39       83.26       42.71       
C           42.69       84.44       43.45       
C           42.41       84.49       44.81       
C           42.06       83.22       45.38       
C           41.86       82.04       44.65       
C           41.9        82.13       43.24       
C           41.83       82.96       46.84       
C           41.42       81.51       46.77       
C           41.53       80.94       45.5        
C           42.62       83.56       41.19       
C           43.41       84.88       41.28       
C           43.19       85.5        42.57       
C           41.2        80.75       47.89       
C           41.03       79.38       47.71       
C           41.24       78.73       46.39       
C           41.54       79.52       45.27       
C           43.84       85.61       40.25       
C           44.2        86.96       40.43       
C           44.13       87.53       41.75       
C           43.61       86.82       42.86       
C           43.14       83.12       47.62       
C           40.59       83.72       47.42       
C           43.46       82.46       40.58       
C           41.36       83.87       40.31       
H           41.65       81.32       42.63       
H           42.59       85.32       45.54       
H           43.99       85.05       39.33       
H           43.54       87.3        43.79       
H           41.23       81.19       48.88       
H           41.75       79.05       44.3        
H           43.47       84.16       47.61       
H           42.99       82.86       48.68       
H           43.99089    82.63478    47.14182    
H           39.68       83.27       47.07       
H           40.56       83.66       48.49       
H           40.48909    84.75795    47.10285    
H           41.46       83.49       39.34       
H           41.28       84.93       40.04       
H           40.42929    83.76977    40.86842    
H           42.95       81.57       40.77       
H           43.53       82.58       39.54       
H           44.45418    82.47441    41.02666    
H           40.88       78.45       49.73       
H           45.07       87.73       38.43       
S           41.21       76.97       46.47       
C           41.0        78.31       48.69       
C           41.22       77.01       48.19       
C           47.09       92.49       37.8        
C           46.05       92.76       38.78       
C           47.24       91.14       37.65       
N           45.73       93.94       39.15       
N           44.45       92.2        40.32       
S           44.64       93.86       40.35       
H           46.93       89.16       38.09       
H           47.99       90.75       36.88       
C           46.54       90.16       38.38       
C           45.35       91.69       39.47       
C           45.56       90.32       39.31       
C           57.52       102.64      29.76       
C           57.41       101.3       29.53       
S           56.34       103.19      30.97       
C           53.18       97.69       32.0        
C           53.19       99.04       32.49       
C           52.28       99.5        33.41       
C           51.47       98.51       34.01       
C           51.53       97.15       33.67       
C           52.33       96.8        32.63       
C           50.69       98.62       35.37       
C           50.21       97.21       35.62       
C           50.57       96.4        34.47       
C           54.31       97.44       31.03       
C           54.99       98.84       30.96       
C           54.2        99.83       31.74       
C           49.48       96.73       36.66       
C           49.02       95.4        36.57       
C           49.36       94.59       35.41       
C           50.12       95.09       34.35       
C           56.05       99.21       30.17       
C           56.41       100.58      30.27       
C           55.66       101.54      31.0        
C           54.55       101.15      31.73       
C           51.47       99.04       36.63       
C           49.43       99.47       35.24       
C           55.39       96.39       31.55       
C           53.77       96.98       29.62       
H           52.43       95.75       32.37       
H           52.29       100.56      33.74       
H           56.51       98.56       29.5        
H           54.12       101.88      32.38       
H           49.21       97.29       37.58       
H           50.45       94.48       33.51       
H           50.89       99.03       37.57       
H           51.72       100.1       36.39       
H           52.44282    98.55359    36.70153    
H           49.75       100.5       35.05       
H           48.9        99.32       36.25       
H           48.80544    99.10341    34.42536    
H           53.49       95.87       29.67       
H           54.48       97.24       28.75       
H           52.82945    97.46088    29.35127    
H           54.93       95.4        31.55       
H           56.19       96.32       30.84       
H           55.73882    96.66051    32.54662    
H           47.96       95.12       38.42       
H           58.0        100.81      28.82       
S           48.49       93.06       35.47       
C           48.28       94.65       37.55       
C           47.98       93.43       37.14       
C           59.97       105.66      27.8        
C           60.41       104.3       27.73       
C           58.78       105.95      28.36       
N           61.59       103.85      27.41       
N           60.09       102.05      28.23       
S           61.62       102.19      27.63       
H           57.13       105.32      29.64       
H           58.49       106.98      28.48       
C           58.04       104.97      29.04       
C           59.55       103.26      28.32       
C           58.39       103.59      29.12       
C           70.24       118.41      24.85       
C           69.27       118.47      25.72       
S           70.12       116.94      23.99       
C           64.93       114.19      26.35       
C           65.98       113.89      25.48       
C           66.06       112.69      24.79       
C           65.11       111.68      25.0        
C           64.0        111.93      25.89       
C           63.87       113.19      26.55       
C           65.16       110.18      24.58       
C           63.72       109.79      25.03       
C           63.2        110.72      25.97       
C           65.21       115.54      27.0        
C           66.41       116.05      26.22       
C           66.85       115.04      25.39       
C           63.25       108.5       25.16       
C           62.34       108.1       26.15       
C           61.78       109.13      26.96       
C           62.19       110.45      26.9        
C           67.02       117.26      26.38       
C           68.29       117.42      25.67       
C           68.6        116.46      24.67       
C           67.97       115.23      24.52       
C           65.37       109.96      23.08       
C           66.18       109.32      25.41       
C           63.97       116.53      26.75       
C           65.4        115.46      28.5        
H           63.0        113.37      27.19       
H           66.78       112.54      24.05       
H           66.8        117.78      27.31       
H           68.36       114.46      23.88       
H           63.76       107.75      24.54       
H           61.77       111.17      27.56       
H           66.29       110.47      22.86       
H           65.57       108.91      22.8        
H           64.65877    110.44625   22.41231    
H           65.75       109.13      26.45       
H           66.25       108.28      24.98       
H           67.21486    109.65289   25.4896     
H           64.41       115.32      29.03       
H           65.81       116.31      28.92       
H           65.99176    114.57908   28.74881    
H           63.17       116.01      27.3        
H           64.05       117.56      27.18       
H           63.70098    116.59544   25.69575    
H           61.96       105.96      25.71       
H           69.11       119.31      26.46       
S           60.51       108.46      27.99       
C           61.81       106.79      26.38       
C           60.77       106.81      27.28       
C           72.62       121.91      23.45       
C           73.07       120.59      23.17       
C           71.57       121.95      24.3        
N           74.11       120.35      22.38       
N           72.9        118.35      23.14       
S           74.2        118.7       22.27       
H           69.98       121.07      25.32       
H           71.05       122.89      24.55       
C           70.84       120.82      24.79       
C           72.38       119.44      23.7        
C           71.21       119.5       24.53       
C           78.09       136.98      19.28       
C           76.76       136.69      19.49       
S           79.08       135.58      19.46       
C           74.74       131.31      21.35       
C           76.21       131.36      21.34       
C           77.06       130.33      21.76       
C           76.5        129.25      22.28       
C           75.06       129.12      22.18       
C           74.18       130.08      21.63       
C           77.23       128.03      22.81       
C           76.05       127.04      22.83       
C           74.8        127.69      22.52       
C           74.05       132.64      21.25       
C           75.31       133.43      20.82       
C           76.52       132.71      20.82       
C           76.13       125.68      23.05       
C           74.92       124.95      22.9        
C           73.71       125.62      22.7        
C           73.61       127.0       22.53       
C           75.29       134.78      20.38       
C           76.51       135.4       19.98       
C           77.72       134.65      20.0        
C           77.74       133.29      20.38       
C           78.28       127.48      21.84       
C           77.87       128.24      24.26       
C           72.96       132.66      20.1        
C           73.47       133.07      22.59       
H           73.11       129.92      21.62       
H           78.17       130.42      21.8        
H           74.35       135.3       20.27       
H           78.63       132.7       20.33       
H           77.13       125.16      23.19       
H           72.63       127.49      22.43       
H           79.06       128.22      21.7        
H           78.76       126.59      22.3        
H           77.92638    127.1476    20.86401    
H           77.05       128.23      25.03       
H           78.38       127.23      24.34       
H           78.61053    129.03135   24.37616    
H           72.59       132.43      22.78       
H           74.14       133.0       23.44       
H           73.22518    134.12624   22.70192    
H           72.04       132.12      20.36       
H           72.72       133.75      19.95       
H           73.3546     132.30622   19.14751    
H           75.43       122.81      23.28       
H           76.06       137.48      19.34       
S           72.37       124.52      22.65       
C           74.65       123.5       23.13       
C           73.26       123.13      23.05       
C           80.53       140.18      17.64       
C           79.18       140.04      17.22       
C           80.97       139.34      18.67       
N           78.48       140.66      16.22       
N           77.13       138.85      17.32       
S           76.94       140.0       16.09       
H           80.5        137.75      19.97       
H           82.0        139.34      19.03       
C           80.11       138.27      19.11       
C           78.34       139.06      17.83       
C           78.85       138.1       18.71       
C           89.93       148.17      7.36        
C           88.58       148.44      7.62        
S           90.71       147.57      8.83        
C           85.76       146.74      12.85       
C           87.17       146.36      12.73       
C           87.64       145.28      13.45       
C           86.74       144.56      14.28       
C           85.44       145.0       14.44       
C           84.93       146.08      13.73       
C           86.97       143.23      14.95       
C           85.59       142.95      15.62       
C           84.72       144.02      15.23       
C           85.27       147.69      11.67       
C           86.63       147.66      10.84       
C           87.73       147.11      11.58       
C           85.04       141.82      16.23       
C           83.64       141.71      16.5        
C           82.83       142.83      16.15       
C           83.37       144.01      15.55       
C           86.8        148.09      9.51        
C           88.12       148.1       8.97        
C           89.17       147.54      9.74        
C           89.01       147.04      11.06       
C           87.31       142.16      13.87       
C           87.95       143.23      16.15       
C           84.21       146.95      10.8        
C           84.86       149.11      12.08       
H           83.92       146.27      13.81       
H           88.66       144.97      13.37       
H           85.98       148.44      8.94        
H           89.8        146.52      11.61       
H           85.58       141.0       16.56       
H           82.71       144.87      15.28       
H           88.2        142.54      13.35       
H           87.65       141.17      14.16       
H           86.52697    141.99775   13.1293     
H           87.6        143.82      16.99       
H           88.01       142.25      16.57       
H           88.97639    143.565     16.00032    
H           83.95       149.37      11.67       
H           85.73       149.62      11.68       
H           84.8528     149.34035   13.14536    
H           83.31       147.03      11.42       
H           84.02       147.54      9.92        
H           84.51991    145.94984   10.49713    
H           83.37       139.93      17.61       
H           87.92       148.81      6.86        
S           81.1        142.49      16.34       
C           82.9        140.79      17.19       
C           81.57       140.95      17.09       
C           91.46       149.08      3.38        
C           91.63       147.76      3.97        
C           90.84       149.93      4.17        
N           92.24       146.72      3.38        
N           91.65       146.25      5.76        
S           92.32       145.52      4.47        
H           90.25       150.5       6.08        
H           90.63       150.95      3.92        
C           90.47       149.66      5.51        
C           91.4        147.52      5.39        
C           90.66       148.45      6.15        
C           86.35       150.97      -12.03      
C           86.73       152.02      -11.25      
S           86.81       149.46      -11.18      
C           89.09       151.7       -5.65       
C           89.11       150.55      -6.43       
C           89.59       149.34      -5.93       
C           90.25       149.38      -4.72       
C           90.32       150.54      -3.99       
C           89.69       151.72      -4.43       
C           91.11       148.29      -4.11       
C           91.36       148.94      -2.73       
C           90.99       150.32      -2.69       
C           88.51       152.89      -6.49       
C           88.17       152.19      -7.78       
C           88.44       150.81      -7.7        
C           91.97       148.37      -1.7        
C           91.75       149.04      -0.44       
C           91.28       150.38      -0.35       
C           91.06       151.1       -1.53       
C           87.59       152.64      -8.94       
C           87.22       151.74      -9.96       
C           87.44       150.34      -9.79       
C           88.14       149.87      -8.67       
C           90.28       146.95      -4.04       
C           92.52       148.0       -4.81       
C           87.28       153.47      -5.9        
C           89.59       154.02      -6.77       
H           89.63       152.61      -3.8        
H           89.53       148.43      -6.52       
H           87.5        153.69      -9.06       
H           88.28       148.83      -8.49       
H           92.24       147.34      -1.73       
H           90.64       152.11      -1.49       
H           90.93       146.15      -3.72       
H           89.87       146.63      -5.04       
H           89.44347    147.01327   -3.34407    
H           92.24       147.37      -5.66       
H           93.24       147.42      -4.13       
H           92.97564    148.8828    -5.25852    
H           89.12       154.92      -7.26       
H           90.37       153.63      -7.45       
H           90.12459    154.45345   -5.92476    
H           86.94       154.44      -6.37       
H           87.31       153.68      -4.83       
H           86.43742    152.77866   -5.9144     
H           92.27       147.56      1.02        
H           86.44       153.06      -11.48      
S           91.07       150.89      1.3         
C           91.9        148.52      0.9         
C           91.65       149.37      1.97        
C           83.79       150.12      -15.52      
C           84.22       151.42      -15.19      
C           84.19       149.18      -14.58      
N           83.95       152.51      -15.91      
N           85.5        153.07      -14.08      
S           84.84       153.74      -15.4       
H           85.35       148.6       -12.97      
H           83.83       148.19      -14.78      
C           85.08       149.48      -13.51      
C           85.15       151.74      -14.11      
C           85.53       150.76      -13.15      
C           73.13       142.05      -25.22      
C           74.45       141.92      -25.17      
S           72.73       143.55      -24.38      
C           78.46       145.41      -22.18      
C           77.11       145.95      -22.15      
C           76.77       147.16      -21.61      
C           77.8        147.8       -20.94      
C           79.09       147.19      -20.82      
C           79.49       146.02      -21.48      
C           77.8        149.04      -20.05      
C           79.22       149.2       -19.46      
C           79.9        148.04      -19.91      
C           78.55       144.1       -22.99      
C           77.11       144.0       -23.41      
C           76.28       145.03      -22.88      
C           79.79       150.05      -18.58      
C           81.05       149.73      -18.02      
C           81.72       148.53      -18.44      
C           81.16       147.75      -19.48      
C           76.61       142.89      -24.12      
C           75.19       142.91      -24.4       
C           74.36       143.97      -23.95      
C           74.9        145.0       -23.21      
C           77.47       150.23      -20.95      
C           76.88       149.04      -18.78      
C           79.55       144.21      -24.17      
C           78.89       142.89      -21.99      
H           80.47       145.6       -21.48      
H           75.84       147.68      -21.76      
H           77.21       142.11      -24.5       
H           74.23       145.66      -22.67      
H           79.22       150.95      -18.31      
H           81.67       146.88      -19.86      
H           76.39       150.43      -21.17      
H           77.69       151.12      -20.35      
H           78.05319    150.29561   -21.86852   
H           77.38       148.26      -18.22      
H           77.0        149.86      -18.06      
H           75.83862    148.78512   -18.97662   
H           79.91       143.16      -21.69      
H           79.13       141.93      -22.48      
H           78.10891    142.73812   -21.24507   
H           80.55       144.32      -23.77      
H           79.58       143.23      -24.58      
H           79.34391    144.96328   -24.93039   
H           81.35       151.29      -16.41      
H           74.92       141.18      -25.78      
S           83.19       148.31      -17.51      
C           81.74       150.41      -16.95      
C           82.86       149.75      -16.56      
C           70.33       139.67      -27.8       
C           69.85       140.84      -27.15      
C           71.61       139.34      -27.45      
N           68.56       141.36      -27.19      
N           70.17       142.68      -25.82      
S           68.62       142.75      -26.36      
H           73.6        139.87      -26.58      
H           72.07       138.41      -27.89      
C           72.56       140.15      -26.7       
C           70.7        141.53      -26.22      
C           72.14       141.26      -25.96      
C           61.17       127.9       -35.03      
C           62.48       127.56      -34.71      
S           60.79       129.6       -35.13      
C           65.86       131.97      -32.11      
C           64.67       132.37      -32.7       
C           64.27       133.7       -32.65      
C           65.21       134.68      -32.17      
C           66.41       134.28      -31.61      
C           66.68       132.91      -31.51      
C           64.95       136.16      -32.07      
C           66.25       136.59      -31.29      
C           67.04       135.45      -31.03      
C           66.12       130.5       -32.41      
C           64.85       130.12      -33.19      
C           64.03       131.26      -33.34      
C           66.58       137.78      -30.67      
C           67.81       137.85      -29.94      
C           68.55       136.74      -29.7       
C           68.21       135.52      -30.23      
C           64.43       128.9       -33.68      
C           63.21       128.78      -34.34      
C           62.35       129.92      -34.42      
C           62.79       131.17      -34.01      
C           64.79       136.59      -33.56      
C           63.63       136.41      -31.3       
C           67.39       130.53      -33.31      
C           66.3        129.6       -31.2       
H           67.61       132.45      -31.17      
H           63.32       134.03      -32.89      
H           65.05       127.98      -33.51      
H           62.12       132.06      -34.09      
H           66.0        138.7       -30.72      
H           68.7        134.58      -29.96      
H           63.77       136.41      -33.97      
H           65.42       135.92      -34.14      
H           65.08312    137.63057   -33.69923   
H           62.78       136.08      -31.79      
H           63.63       137.48      -31.18      
H           63.58003    135.94603   -30.31495   
H           67.25       129.86      -30.78      
H           66.27       128.56      -31.44      
H           65.57035    129.81673   -30.41978   
H           68.23       130.64      -32.61      
H           67.2        131.41      -33.95      
H           67.48299    129.67159   -33.97527   
H           67.84       139.89      -29.23      
H           62.84       126.49      -34.76      
S           70.01       137.1       -28.79      
C           68.39       138.96      -29.3       
C           69.56       138.76      -28.67      
C           58.51       125.29      -37.26      
C           58.02       126.11      -36.13      
C           59.91       125.38      -37.45      
N           56.71       126.13      -35.68      
N           58.19       127.57      -34.3       
S           56.57       127.12      -34.39      
H           61.74       126.36      -36.86      
H           60.36       124.72      -38.15      
C           60.66       126.18      -36.58      
C           58.87       126.96      -35.27      
C           60.26       127.0       -35.58      
C           49.69       119.82      -50.09      
C           50.96       120.2       -50.13      
S           49.25       119.58      -48.42      
C           54.27       121.78      -45.29      
C           53.01       121.23      -45.03      
C           52.53       121.13      -43.74      
C           53.35       121.56      -42.7       
C           54.62       122.1       -42.93      
C           55.1        122.16      -44.27      
C           53.02       121.76      -41.21      
C           54.35       122.34      -40.69      
C           55.22       122.49      -41.73      
C           54.58       121.87      -46.8       
C           53.3        121.34      -47.37      
C           52.38       121.0       -46.29      
C           54.64       122.66      -39.38      
C           55.89       123.28      -39.15      
C           56.8        123.34      -40.2       
C           56.47       123.03      -41.53      
C           52.89       121.11      -48.67      
C           51.6        120.61      -48.9       
C           50.74       120.34      -47.83      
C           51.1        120.47      -46.48      
C           51.95       122.82      -40.99      
C           52.77       120.49      -40.38      
C           54.94       123.31      -47.18      
C           55.77       120.91      -46.97      
H           56.11       122.6       -44.53      
H           51.5        120.78      -43.52      
H           53.52       121.24      -49.54      
H           50.46       120.26      -45.63      
H           53.93       122.65      -38.59      
H           57.25       123.09      -42.22      
H           50.92       122.51      -41.38      
H           51.87       122.98      -39.93      
H           52.17253    123.82137   -41.35856   
H           53.78       120.05      -40.43      
H           52.67       120.74      -39.28      
H           51.98363    119.84792   -40.77679   
H           56.7        121.44      -46.65      
H           55.55       120.14      -46.27      
H           55.95216    120.50364   -47.96488   
H           56.04       123.59      -47.17      
H           54.47       123.97      -46.42      
H           54.54927    123.7152    -48.11341   
H           55.97       123.81      -36.96      
H           51.44       120.55      -51.03      
S           58.29       124.1       -39.73      
C           56.52       123.81      -37.94      
C           57.71       124.47      -38.14      
C           46.54       119.11      -53.13      
C           47.84       119.56      -53.53      
C           46.33       118.94      -51.76      
N           48.25       119.82      -54.81      
N           49.99       120.25      -53.09      
S           49.86       120.09      -54.76      
H           47.07       119.11      -49.74      
H           45.31       118.97      -51.25      
C           47.38       119.18      -50.78      
C           48.85       119.81      -52.53      
C           48.67       119.58      -51.11      
H           46.94       58.34       57.96       
H           45.64       119.19      -53.78      
