612

C           55.72       57.09       71.34       
C           55.1        57.32       72.51       
S           54.8        55.94       70.37       
C           49.16       55.95       73.39       
C           49.81       55.58       72.15       
C           48.99       55.02       71.15       
C           47.6        54.95       71.29       
C           46.99       55.47       72.43       
C           47.77       56.02       73.44       
C           46.46       54.64       70.25       
C           45.18       55.05       71.0        
C           45.5        55.27       72.36       
C           50.26       56.64       74.29       
C           51.5        56.6        73.36       
C           51.19       55.83       72.22       
C           43.86       55.05       70.55       
C           42.85       55.19       71.53       
C           43.2        55.4        72.89       
C           44.51       55.5        73.31       
C           52.81       57.07       73.58       
C           53.79       56.72       72.65       
C           53.49       55.94       71.51       
C           52.16       55.48       71.32       
C           46.56       55.53       68.9        
C           46.47       53.15       69.87       
C           49.76       58.17       74.52       
C           50.59       55.9        75.63       
H           47.32       56.57       74.33       
H           49.45       54.78       70.19       
H           53.12       57.67       74.4        
H           51.93       54.88       70.46       
H           43.69       54.7        69.55       
H           44.68       55.78       74.31       
H           47.52       55.46       68.38       
H           45.82       55.19       68.21       
H           46.43854    56.59458    69.10005    
H           46.3        52.56       70.78       
H           45.52       52.94       69.32       
H           47.4168     52.82037    69.44219    
H           51.35       56.4        76.22       
H           50.94       54.89       75.51       
H           49.76876    55.96731    76.34354    
H           48.74       58.29       74.95       
H           50.4        58.66       75.26       
H           49.68882    58.82488    73.65157    
H           40.86       55.07       70.38       
H           55.46       58.08       73.21       
S           41.74       55.72       73.83       
C           41.4        55.22       71.35       
C           40.67       55.44       72.46       
C           59.15       59.0        69.31       
C           59.11       58.94       70.8        
C           58.08       58.47       68.67       
N           60.09       59.4        71.6        
N           58.15       58.26       72.82       
S           59.51       59.07       73.16       
H           56.22       57.43       68.78       
H           57.95       58.57       67.59       
C           57.0        57.91       69.39       
C           58.04       58.24       71.47       
C           56.99       57.61       70.76       
C           70.87       62.46       58.41       
C           69.61       62.25       58.0        
S           70.9        62.97       60.08       
C           65.01       61.99       61.99       
C           66.21       62.36       62.5        
C           66.37       62.68       63.82       
C           65.37       62.35       64.64       
C           64.14       61.91       64.13       
C           63.93       61.8        62.75       
C           65.38       62.36       66.13       
C           63.93       61.97       66.47       
C           63.31       61.47       65.28       
C           65.08       61.78       60.5        
C           66.5        62.06       60.2        
C           67.2        62.36       61.42       
C           63.38       61.66       67.68       
C           62.15       60.92       67.71       
C           61.54       60.52       66.48       
C           62.13       60.77       65.25       
C           67.18       62.07       58.94       
C           68.6        62.23       59.05       
C           69.2        62.63       60.27       
C           68.53       62.74       61.45       
C           66.47       61.37       66.52       
C           65.59       63.81       66.62       
C           64.75       60.27       60.29       
C           64.22       62.73       59.64       
H           63.04       61.32       62.31       
H           67.32       63.06       64.27       
H           66.78       61.85       57.95       
H           68.97       63.13       62.4        
H           63.75       62.04       68.64       
H           61.7        60.36       64.31       
H           67.27       61.44       65.75       
H           66.11       60.4        66.34       
H           66.84448    61.49963    67.53541    
H           66.67       63.97       66.71       
H           65.31       63.9        67.66       
H           65.05967    64.59115    66.07534    
H           63.29       62.34       59.72       
H           64.47       62.71       58.61       
H           64.21307    63.72859    60.07688    
H           63.74       59.98       60.66       
H           64.48       60.16       59.23       
H           65.48668    59.5261     60.59334    
H           61.7        60.36       69.85       
H           69.25       62.11       56.98       
S           60.13       59.49       66.76       
C           61.37       60.39       68.84       
C           60.23       59.66       68.5        
C           74.79       61.95       56.44       
C           73.64       62.29       55.62       
C           74.56       61.96       57.71       
N           73.65       62.53       54.28       
N           71.46       63.02       55.33       
S           72.14       62.91       53.8        
H           73.13       61.88       59.32       
H           75.36       61.71       58.42       
C           73.28       62.05       58.27       
C           72.36       62.69       56.24       
C           72.17       62.47       57.67       
C           90.93       63.71       52.83       
C           90.5        63.78       54.11       
S           89.67       63.12       51.74       
C           84.68       62.57       55.53       
C           85.0        62.38       54.18       
C           84.04       62.13       53.21       
C           82.73       62.14       53.66       
C           82.42       62.31       54.95       
C           83.35       62.45       55.93       
C           81.5        62.23       52.75       
C           80.39       62.27       53.83       
C           80.92       62.19       55.11       
C           85.84       63.2        56.31       
C           86.9        63.26       55.26       
C           86.39       62.69       54.04       
C           79.04       62.19       53.57       
C           78.11       62.03       54.61       
C           78.66       61.9        55.9        
C           80.06       61.93       56.16       
C           88.3        63.47       55.39       
C           89.09       63.45       54.2        
C           88.49       63.05       52.98       
C           87.17       62.6        52.89       
C           81.48       63.42       51.74       
C           81.31       60.91       52.01       
C           85.54       64.65       56.79       
C           86.38       62.31       57.48       
H           83.08       62.6        56.93       
H           84.33       61.96       52.15       
H           88.73       63.83       56.25       
H           86.76       62.25       51.94       
H           78.61       62.16       52.55       
H           80.44       61.97       57.18       
H           80.86       62.99       50.96       
H           82.49       63.62       51.43       
H           80.92906    64.28879    52.10023    
H           81.16       60.14       52.76       
H           80.32       61.01       51.44       
H           82.07561    60.62563    51.28814    
H           87.36       62.47       57.74       
H           86.24       61.3        57.21       
H           85.90865    62.40849    58.45787    
H           84.62       64.8        57.3        
H           86.3        65.1        57.47       
H           85.4291     65.36718    55.9767     
H           76.03       62.17       53.79       
H           91.17       64.08       54.94       
S           77.47       61.95       57.17       
C           76.68       62.1        54.67       
C           76.17       61.9        55.96       
C           94.85       63.57       50.94       
C           94.75       63.33       52.31       
C           93.65       63.95       50.3        
N           95.72       63.01       53.15       
N           93.53       63.12       54.23       
S           95.06       62.82       54.64       
H           91.56       64.29       50.35       
H           93.59       64.15       49.16       
C           92.36       63.96       50.95       
C           93.44       63.45       52.96       
C           92.23       63.66       52.26       
C           106.79      62.92       39.27       
C           106.18      64.11       39.68       
S           106.15      61.61       40.27       
C           101.75      64.39       43.84       
C           102.5       63.21       43.83       
C           102.34      62.18       44.75       
C           101.24      62.24       45.6        
C           100.42      63.42       45.58       
C           100.71      64.43       44.68       
C           100.78      61.24       46.67       
C           99.67       62.02       47.41       
C           99.38       63.25       46.62       
C           102.32      65.43       42.89       
C           103.3       64.52       42.19       
C           103.43      63.26       42.67       
C           98.9        61.66       48.51       
C           97.86       62.49       48.92       
C           97.61       63.67       48.12       
C           98.41       64.09       47.07       
C           104.27      64.92       41.27       
C           105.1       63.94       40.69       
C           105.08      62.66       41.14       
C           104.19      62.28       42.19       
C           100.33      59.89       46.0        
C           102.01      61.05       47.64       
C           101.27      65.99       41.86       
C           103.09      66.46       43.75       
H           100.06      65.35       44.65       
H           103.1       61.33       44.93       
H           104.48      65.94       41.02       
H           104.17      61.28       42.6        
H           99.06       60.72       49.11       
H           98.11       65.09       46.74       
H           100.92      59.56       45.21       
H           99.4        60.18       45.54       
H           100.08035   59.09698    46.70491    
H           102.82      60.76       47.0        
H           101.72      60.24       48.29       
H           102.39924   61.88409    48.22386    
H           103.94      65.92       44.12       
H           102.63      66.8        44.71       
H           103.46591   67.34657    43.23933    
H           100.61      66.77       42.16       
H           101.82      66.53       41.11       
H           100.64379   65.26637    41.33815    
H           96.9        61.61       50.81       
H           106.41      65.08       39.2        
S           96.19       64.41       48.73       
C           96.94       62.4        50.05       
C           96.01       63.36       50.09       
C           110.21      62.63       36.5        
C           109.49      61.48       36.87       
C           109.73      63.84       37.04       
N           109.69      60.28       36.35       
N           107.87      60.36       38.06       
S           108.67      59.33       37.13       
H           108.44      64.86       38.47       
H           110.24      64.79       36.87       
C           108.68      63.89       38.02       
C           108.36      61.51       37.81       
C           107.92      62.74       38.34       
C           124.37      65.09       28.91       
C           123.24      65.73       28.45       
S           123.9       63.69       29.82       
C           117.56      64.32       30.04       
C           118.62      63.61       30.66       
C           118.42      62.57       31.55       
C           117.16      62.41       32.07       
C           116.08      63.23       31.66       
C           116.27      64.17       30.63       
C           116.69      61.24       32.88       
C           115.21      61.66       33.15       
C           114.92      62.91       32.51       
C           118.12      65.2        28.94       
C           119.65      64.93       29.05       
C           119.88      63.9        29.97       
C           114.43      61.18       34.09       
C           113.28      61.88       34.45       
C           113.1       63.2        33.99       
C           113.82      63.68       32.9        
C           120.73      65.56       28.48       
C           121.99      65.15       28.75       
C           122.17      63.98       29.56       
C           121.11      63.25       30.13       
C           116.79      59.95       32.06       
C           117.47      61.08       34.24       
C           117.43      64.73       27.66       
C           117.7       66.69       29.26       
H           115.42      64.73       30.18       
H           119.23      62.02       31.93       
H           120.56      66.26       27.62       
H           121.33      62.4        30.87       
H           114.6       60.34       34.72       
H           113.64      64.63       32.43       
H           117.29      59.13       32.68       
H           117.45      59.96       31.16       
H           115.81686   59.59223    31.72369    
H           118.49      60.8        33.91       
H           117.03      60.38       34.98       
H           117.64773   61.9971     34.80164    
H           116.66      66.97       29.02       
H           118.29      67.38       28.63       
H           117.94757   66.93029    30.29396    
H           116.3       64.96       27.72       
H           117.85      65.21       26.79       
H           117.58562   63.67452    27.43673    
H           112.3       60.71       35.99       
H           123.35      66.6        27.81       
S           111.62      63.94       34.61       
C           112.3       61.63       35.47       
C           111.36      62.61       35.62       
C           128.24      67.05       28.95       
C           128.21      65.67       29.07       
C           127.02      67.64       28.85       
N           129.32      64.89       29.02       
N           127.05      63.6        29.13       
S           128.68      63.35       29.11       
H           125.02      67.66       29.0        
H           127.06      68.65       28.8        
C           125.81      67.01       28.86       
C           126.95      64.92       29.05       
C           125.71      65.63       28.91       
C           142.18      75.86       31.07       
C           141.61      74.9        31.87       
S           141.3       75.89       29.53       
C           136.77      71.6        30.61       
C           136.98      72.64       29.68       
C           136.15      72.74       28.55       
C           135.0       71.93       28.5        
C           134.81      70.92       29.48       
C           135.75      70.69       30.44       
C           133.84      72.04       27.51       
C           133.03      70.81       28.11       
C           133.6       70.16       29.2        
C           137.7       71.65       31.78       
C           138.57      72.82       31.32       
C           138.23      73.28       30.02       
C           131.76      70.47       27.77       
C           131.12      69.45       28.52       
C           131.83      68.71       29.44       
C           133.1       69.03       29.86       
C           139.71      73.25       31.93       
C           140.43      74.24       31.32       
C           140.11      74.72       30.02       
C           138.97      74.24       29.37       
C           133.05      73.32       27.84       
C           134.14      71.76       26.05       
C           136.85      72.07       33.01       
C           138.6       70.35       31.97       
H           135.67      69.78       31.07       
H           136.46      73.47       27.83       
H           139.93      72.95       33.01       
H           138.61      74.56       28.39       
H           131.24      70.96       26.93       
H           133.51      68.68       30.79       
H           132.22      73.61       27.17       
H           133.73      74.2        27.53       
H           132.86633   73.45959    28.90531    
H           134.56      72.71       25.72       
H           133.26      71.63       25.48       
H           134.79902   70.90757    25.88524    
H           139.57      70.6        32.33       
H           138.7       69.87       31.0        
H           138.29161   69.68416    32.77601    
H           135.96      71.4        33.05       
H           137.31      72.02       33.98       
H           136.46886   73.08174    32.8714     
H           129.04      69.15       27.59       
H           142.03      74.62       32.78       
S           130.81      67.45       30.15       
C           129.77      68.92       28.32       
C           129.52      67.82       29.02       
C           145.81      78.51       31.2        
C           145.49      77.57       32.31       
C           144.85      78.51       30.21       
N           146.34      77.21       33.25       
N           144.35      75.87       33.38       
S           145.73      76.09       34.2        
H           143.01      77.81       29.35       
H           144.95      79.26       29.41       
C           143.67      77.65       30.25       
C           144.31      76.74       32.36       
C           143.33      76.81       31.28       
C           157.18      89.99       27.98       
C           155.84      90.29       27.96       
S           157.55      88.54       28.9        
C           151.69      86.15       29.71       
C           152.99      85.75       29.76       
C           153.4       84.52       30.21       
C           152.41      83.61       30.44       
C           151.04      84.0        30.35       
C           150.7       85.31       29.99       
C           152.54      82.1        30.77       
C           151.05      81.76       31.04       
C           150.25      82.83       30.64       
C           151.7       87.65       29.32       
C           153.14      87.95       28.98       
C           153.86      86.89       29.49       
C           150.42      80.57       31.33       
C           149.06      80.38       31.11       
C           148.3       81.47       30.72       
C           148.89      82.75       30.57       
C           153.62      89.06       28.42       
C           155.02      89.24       28.36       
C           155.81      88.19       28.9        
C           155.24      86.99       29.43       
C           153.17      81.26       29.67       
C           153.24      81.93       32.19       
C           150.85      87.7        28.04       
C           151.27      88.62       30.46       
H           149.67      85.57       29.81       
H           154.48      84.2        30.27       
H           152.86      89.81       28.16       
H           155.83      86.21       29.8        
H           151.03      79.75       31.69       
H           148.22      83.59       30.32       
H           153.65      80.45       30.17       
H           153.96      81.89       29.17       
H           152.53621   80.94311    28.84175    
H           154.32      82.19       32.17       
H           153.25      80.87       32.5        
H           152.69378   82.47622    32.95902    
H           151.12      89.6        30.1        
H           152.15      88.64       31.15       
H           150.29884   88.43745    30.92002    
H           149.82      87.31       28.22       
H           150.88      88.73       27.65       
H           151.32029   87.13846    27.23278    
H           148.88      78.29       31.58       
H           155.39      91.19       27.62       
S           146.64      81.09       30.7        
C           148.32      79.23       31.23       
C           146.96      79.41       31.09       
C           160.75      92.23       26.7        
C           159.5       92.9        26.89       
C           160.75      90.88       27.01       
N           159.32      94.16       26.68       
N           157.25      93.05       27.5        
S           157.73      94.48       26.94       
H           159.7       89.1        27.62       
H           161.61      90.18       26.68       
C           159.56      90.18       27.39       
C           158.26      92.2        27.36       
C           158.34      90.81       27.56       
C           171.45      93.48       14.72       
C           171.53      92.53       15.7        
S           170.76      94.98       15.35       
C           168.25      92.69       20.68       
C           168.23      93.89       19.93       
C           167.43      94.97       20.29       
C           166.51      94.82       21.29       
C           166.61      93.66       22.04       
C           167.49      92.57       21.77       
C           165.55      95.88       21.96       
C           164.87      95.01       23.0        
C           165.54      93.75       23.06       
C           169.18      91.68       20.14       
C           169.78      92.49       18.98       
C           169.17      93.79       18.8        
C           163.75      95.16       23.84       
C           163.29      94.14       24.61       
C           164.05      92.89       24.62       
C           165.18      92.71       23.87       
C           170.66      92.03       18.01       
C           170.87      92.83       16.89       
C           170.39      94.09       16.85       
C           169.55      94.68       17.86       
C           166.43      97.05       22.57       
C           164.53      96.37       20.94       
C           170.23      91.34       21.22       
C           168.62      90.39       19.6        
H           167.54      91.66       22.46       
H           167.43      95.98       19.82       
H           171.18      91.08       18.2        
H           169.18      95.76       17.81       
H           163.18      96.08       23.76       
H           165.75      91.78       23.86       
H           167.0       97.5        21.8        
H           167.18      96.55       23.19       
H           165.84518   97.7418     23.17622    
H           165.05      97.0        20.21       
H           163.78      97.02       21.34       
H           164.05412   95.5336     20.42807    
H           169.15      89.53       20.07       
H           168.81      90.36       18.52       
H           167.54353   90.24647    19.69329    
H           169.79      90.85       22.1        
H           171.02      90.7        20.79       
H           170.64951   92.24412    21.66121    
H           161.4       94.91       25.67       
H           172.02      91.56       15.55       
S           163.3       91.78       25.74       
C           162.13      94.09       25.49       
C           161.91      92.88       26.05       
C           172.06      93.41       10.36       
C           172.69      92.38       11.17       
C           171.4       94.36       11.06       
N           173.49      91.4        10.72       
N           173.06      91.34       13.13       
S           174.06      90.63       12.02       
H           170.66      95.18       12.8        
H           171.04      95.22       10.48       
C           171.34      94.45       12.44       
C           172.54      92.43       12.63       
C           171.81      93.47       13.32       
C           172.26      96.41       -6.08       
C           172.26      97.46       -5.21       
S           172.87      94.93       -5.34       
C           172.58      96.49       0.81        
C           173.03      95.45       0.04        
C           173.26      94.23       0.6         
C           173.07      94.03       1.96        
C           172.71      95.11       2.76        
C           172.37      96.33       2.2         
C           173.64      92.93       2.81        
C           173.14      93.34       4.22        
C           172.61      94.65       4.19        
C           172.3       97.77       -0.03       
C           172.64      97.23       -1.44       
C           173.09      95.87       -1.33       
C           173.3       92.66       5.44        
C           172.9       93.24       6.67        
C           172.39      94.57       6.55        
C           172.31      95.3        5.4         
C           172.5       97.85       -2.67       
C           172.58      97.11       -3.84       
C           172.99      95.7        -3.73       
C           173.3       95.11       -2.51       
C           173.03      91.52       2.49        
C           175.17      92.86       3.07        
C           170.83      98.22       0.03        
C           173.15      99.0        0.34        
H           172.07      97.14       2.87        
H           173.5       93.35       -0.0        
H           172.09      98.83       -2.69       
H           173.59      94.08       -2.51       
H           173.47      91.59       5.5         
H           172.04      96.35       5.3         
H           173.42      91.16       1.53        
H           173.57      90.79       3.12        
H           171.94593   91.4841     2.59769     
H           175.45      93.85       3.37        
H           175.41      92.15       3.89        
H           175.8008    92.62611    2.2124      
H           172.72      99.48       1.19        
H           173.13      99.72       -0.53       
H           174.21184   98.77195    0.43264     
H           170.53      98.3        1.02        
H           170.8       99.24       -0.43       
H           170.16162   97.51752    -0.46788    
H           172.98      91.61       8.25        
H           171.85      98.38       -5.55       
S           172.0       95.18       8.17        
C           172.77      92.64       7.97        
C           172.32      93.56       8.9         
C           170.41      96.47       -10.12      
C           171.1       97.64       -9.58       
C           170.58      95.42       -9.31       
N           171.03      98.87       -10.21      
N           172.29      98.89       -8.0        
S           171.9       99.81       -9.22       
H           171.28      94.46       -7.54       
H           170.28      94.38       -9.71       
C           171.26      95.4        -8.05       
C           171.76      97.66       -8.29       
C           171.86      96.5        -7.5        
C           162.29      93.91       -24.6       
C           162.95      93.02       -23.76      
S           162.31      95.48       -23.86      
C           165.73      94.33       -18.56      
C           165.17      95.48       -19.2       
C           165.2       96.7        -18.48      
C           166.01      96.77       -17.31      
C           166.7       95.62       -16.87      
C           166.49      94.44       -17.43      
C           166.54      98.02       -16.6       
C           167.35      97.38       -15.43      
C           167.41      95.96       -15.68      
C           165.35      93.05       -19.34      
C           164.91      93.66       -20.67      
C           164.54      95.06       -20.49      
C           167.91      97.91       -14.31      
C           168.53      97.15       -13.35      
C           168.59      95.73       -13.57      
C           168.06      95.16       -14.72      
C           164.37      92.97       -21.73      
C           163.55      93.61       -22.64      
C           163.31      95.03       -22.51      
C           163.77      95.72       -21.44      
C           167.38      98.81       -17.59      
C           165.44      98.97       -15.98      
C           166.64      92.16       -19.56      
C           164.22      92.23       -18.67      
H           166.92      93.58       -16.92      
H           164.82      97.59       -18.87      
H           164.42      91.95       -21.73      
H           163.57      96.76       -21.36      
H           167.76      98.96       -14.14      
H           168.09      94.06       -14.76      
H           166.71      99.33       -18.31      
H           167.93      98.19       -18.29      
H           168.04275   99.55826    -17.15529   
H           165.04      99.67       -16.72      
H           165.78      99.47       -15.09      
H           164.65252   98.3386     -15.56853   
H           164.48      91.29       -18.02      
H           163.58      91.87       -19.48      
H           163.52832   92.80759    -18.05676   
H           167.09      91.91       -18.6       
H           166.56      91.23       -20.11      
H           167.3763    92.72473    -20.13188   
H           169.2       98.57       -11.8       
H           163.08      91.96       -23.9       
S           169.38      95.0        -12.19      
C           169.14      97.54       -12.07      
C           169.72      96.5        -11.36      
C           160.21      93.35       -28.54      
C           160.68      92.24       -27.76      
C           160.49      94.64       -27.98      
N           160.55      91.0        -28.23      
N           161.64      91.19       -25.95      
S           161.09      90.05       -27.0       
H           161.58      95.78       -26.53      
H           160.27      95.52       -28.55      
C           161.37      94.76       -26.86      
C           161.37      92.41       -26.48      
C           161.69      93.73       -25.95      
H           39.69       55.89       72.45       
H           159.76      93.19       -29.49      
