96

C           -13.01246   1.0715      -0.00177    
C           -13.28446   2.43552     0.00679     
S           -14.52156   0.1618      -0.0087     
H           -15.05258   3.74744     0.01391     
H           -12.49133   3.17684     0.01212     
C           -14.65801   2.73999     0.00774     
C           -15.48412   1.62745     0.0         
C           -8.19267    0.93919     0.00065     
C           -9.41065    0.25141     -0.00451    
N           -8.50249    2.29878     0.00909     
C           -9.91994    2.51867     0.00955     
C           -9.96945    -1.08143    -0.01341    
O           -9.47496    -2.20704    -0.02025    
O           -10.41476   3.64393     0.0164      
C           -12.28591   -2.00128    -0.02084    
C           -7.60361    3.43873     0.01696     
C           -6.65689    4.63934     0.02526     
H           -7.19161    3.10726     0.9701      
H           -8.01562    3.77019     -0.93618    
H           -13.07093   -1.38532    0.41785     
C           -13.23262   -3.20192    -0.02912    
H           -11.50091   -2.61724    -0.45954    
N           -11.38708   -0.86136    -0.01298    
C           -10.47885   1.18555     0.00073     
C           -11.69656   0.49814     -0.0045     
C           -4.40492    -0.19088    -0.00407    
C           -5.2335     -1.3037     -0.01166    
S           -5.36804    1.27577     0.00461     
H           -7.39916    -1.73916    -0.01583    
H           -4.84017    -2.31145    -0.0178     
C           -6.60548    -0.99838    -0.01061    
C           -6.87758    0.36648     -0.00213    
C           0.0         0.0         0.0         
C           -0.70846    -1.24237    -0.00831    
C           -0.82593    1.12261     0.00652     
N           -2.49302    -2.6116     -0.01809    
N           -1.32871    -3.24748    -0.02131    
N           -0.23053    -2.50726    -0.01595    
C           -1.25801    -4.69997    -0.03074    
H           -0.37478    2.11067     0.01305     
H           -2.77223    2.00175     0.0108      
C           -2.65858    -4.77211    0.57839     
H           -0.25956    -4.64855    -0.46498    
C           -1.18367    -6.22713    -0.04066    
C           -2.23356    1.05845     0.00521     
C           -2.13464    -1.30883    -0.00966    
C           -2.95414    -0.13551    -0.00279    
C           -5.71016    5.83996     0.03354     
C           -4.76343    7.04057     0.04184     
C           -3.81671    8.2412      0.05013     
C           -2.86998    9.44182     0.05842     
C           -1.92326    10.64243    0.06671     
C           -0.97653    11.84305    0.075       
C           -0.02981    13.04366    0.08329     
C           0.91692     14.24428    0.09158     
C           1.86364     15.4449     0.09988     
C           2.81037     16.64552    0.10817     
C           3.7571      17.84614    0.11646     
C           4.70383     19.04675    0.12475     
C           5.65055     20.24737    0.13304     
C           6.59728     21.44799    0.14133     
C           7.544       22.6486     0.14962     
C           8.49072     23.84922    0.15791     
C           -14.17932   -4.40256    -0.03741    
C           -15.12602   -5.60319    -0.04569    
C           -16.07272   -6.80383    -0.05397    
C           -17.01942   -8.00446    -0.06225    
C           -17.96613   -9.2051     -0.07052    
C           -18.91282   -10.40574   -0.07881    
C           -19.85953   -11.60637   -0.08709    
C           -20.80623   -12.80701   -0.09537    
C           -21.75293   -14.00765   -0.10365    
C           -22.69963   -15.20828   -0.11193    
C           -23.64633   -16.40892   -0.12022    
C           -24.59304   -17.60956   -0.1285     
C           -25.53974   -18.81019   -0.13677    
C           -26.48643   -20.01083   -0.14505    
C           -27.43314   -21.21147   -0.15333    
C           -28.37984   -22.41211   -0.16162    
C           -1.10933    -7.75429    -0.05059    
C           -1.03499    -9.28145    -0.06051    
C           -0.96065    -10.80861   -0.07043    
C           -0.88631    -12.33577   -0.08035    
C           -0.81197    -13.86293   -0.09027    
C           -0.73763    -15.39009   -0.10019    
C           -0.66329    -16.91725   -0.11012    
C           -4.05915    -4.84424    1.18752     
C           -5.45972    -4.91638    1.79665     
C           -6.86029    -4.98852    2.40578     
C           -8.26086    -5.06065    3.01491     
C           -9.66143    -5.13279    3.62404     
C           -11.062     -5.20492    4.23317     
C           -12.46257   -5.27706    4.84231     
C           -13.86314   -5.34919    5.45144     
H           -16.57412   1.62745     0.0         
H           1.09        0.0         0.0         
