190

C           -29.08482   -0.49827    -1.2779     
C           -29.35682   0.86575     -1.26934    
S           -30.59392   -1.40797    -1.28483    
H           -31.12494   2.17767     -1.26222    
H           -28.5637    1.60707     -1.26402    
C           -30.73037   1.17022     -1.26839    
C           -31.55649   0.05767     -1.27613    
C           -24.26503   -0.63059    -1.27548    
C           -25.48302   -1.31836    -1.28064    
N           -24.57486   0.72901     -1.26704    
C           -25.99231   0.9489      -1.26658    
C           -26.04182   -2.65121    -1.28954    
O           -25.54732   -3.77681    -1.29638    
O           -26.48712   2.07416     -1.25974    
C           -28.35828   -3.57105    -1.29698    
C           -23.67597   1.86896     -1.25917    
C           -22.72925   3.06957     -1.25088    
H           -23.26397   1.53748     -0.30603    
H           -24.08799   2.20042     -2.21232    
H           -29.1433    -2.9551     -0.85829    
C           -29.30498   -4.77169    -1.30526    
H           -27.57327   -4.18701    -1.73567    
N           -27.45945   -2.43113    -1.28912    
C           -26.55122   -0.38423    -1.27541    
C           -27.76892   -1.07164    -1.28064    
C           -20.47729   -1.76066    -1.28021    
C           -21.30587   -2.87347    -1.2878     
S           -21.44041   -0.294      -1.27152    
H           -23.47152   -3.30893    -1.29197    
H           -20.91253   -3.88122    -1.29394    
C           -22.67784   -2.56816    -1.28674    
C           -22.94994   -1.2033     -1.27827    
C           -16.07236   -1.56977    -1.27613    
C           -16.78082   -2.81214    -1.28445    
C           -16.89829   -0.44716    -1.26961    
N           -18.56538   -4.18137    -1.29422    
N           -17.40108   -4.81726    -1.29744    
N           -16.30289   -4.07704    -1.29208    
C           -17.33037   -6.26975    -1.30688    
H           -16.44714   0.5409      -1.26309    
H           -18.84459   0.43198     -1.26533    
C           -18.73094   -6.34188    -0.69775    
H           -16.33193   -6.21832    -1.74112    
C           -17.25603   -7.79691    -1.3168     
C           -18.30592   -0.51132    -1.27092    
C           -18.207     -2.8786     -1.28579    
C           -19.02651   -1.70528    -1.27892    
C           -21.78252   4.27019     -1.24259    
C           -20.8358    5.4708      -1.2343     
C           -19.88908   6.67142     -1.22601    
C           -18.94235   7.87204     -1.21772    
C           -17.99563   9.07265     -1.20943    
C           -17.0489    10.27328    -1.20114    
C           -16.10217   11.47389    -1.19285    
C           -15.15544   12.67451    -1.18456    
C           -14.20872   13.87513    -1.17626    
C           -13.26199   15.07574    -1.16797    
C           -12.31527   16.27636    -1.15968    
C           -11.36854   17.47697    -1.15139    
C           -10.42182   18.6776     -1.1431     
C           -9.47509    19.87822    -1.13481    
C           -8.52836    21.07883    -1.12652    
C           -7.58164    22.27945    -1.11822    
C           -30.25169   -5.97233    -1.31354    
C           -31.19838   -7.17296    -1.32182    
C           -32.14508   -8.3736     -1.3301     
C           -33.09179   -9.57423    -1.33838    
C           -34.03849   -10.77487   -1.34666    
C           -34.98519   -11.97551   -1.35495    
C           -35.93189   -13.17615   -1.36323    
C           -36.87859   -14.37679   -1.3715     
C           -37.8253    -15.57743   -1.37978    
C           -38.77199   -16.77806   -1.38806    
C           -39.7187    -17.9787    -1.39635    
C           -40.6654    -19.17934   -1.40463    
C           -41.6121    -20.37997   -1.41291    
C           -42.5588    -21.58061   -1.42119    
C           -43.5055    -22.78125   -1.42947    
C           -44.45221   -23.98188   -1.43775    
C           -17.18169   -9.32407    -1.32672    
C           -17.10735   -10.85123   -1.33664    
C           -17.03301   -12.37838   -1.34656    
C           -16.95867   -13.90554   -1.35649    
C           -16.88433   -15.4327    -1.36641    
C           -16.80999   -16.95986   -1.37633    
C           -16.73565   -18.48702   -1.38625    
C           -20.13151   -6.41402    -0.08861    
C           -21.53208   -6.48615    0.52052     
C           -22.93265   -6.55829    1.12965     
C           -24.33322   -6.63042    1.73878     
C           -25.73379   -6.70256    2.34791     
C           -27.13436   -6.7747     2.95704     
C           -28.53493   -6.84683    3.56617     
C           -29.9355    -6.91897    4.1753      
C           -12.92242   -1.86334    -0.10654    
C           -13.4833    -0.6849     0.37439     
S           -14.19699   -3.01763    -0.49135    
H           -15.49197   0.12028     0.77984     
H           -12.87048   0.1606      0.67143     
C           -14.88882   -0.70791    0.43198     
C           -15.45336   -1.89743    0.0         
C           -8.19331    -0.93312    0.02827     
C           -9.23207    -1.82264    -0.26546    
N           -8.79013    0.23309     0.50611     
C           -10.22013   0.12373     0.53166     
C           -9.48817    -3.15384    -0.76659    
O           -8.76196    -4.06748    -1.1532     
O           -10.94657   1.03698     0.91813     
C           -11.5479    -4.4933     -1.18552    
C           -8.16057    1.46337     0.95063     
C           -7.4975     2.75912     1.4188      
H           -7.64549    0.91484     1.73924     
H           -8.67566    2.01189     0.16201     
H           -12.42808   -4.25929    -0.58666    
C           -12.21094   -5.78908    -1.65369    
H           -10.66773   -4.72732    -1.78437    
N           -10.91838   -3.26305    -0.74102    
C           -10.47627   -1.20777    0.03049     
C           -11.51484   -2.09688    -0.26316    
C           -4.25446    -1.13313    -0.23536    
C           -4.82133    -2.3235     -0.66739    
S           -5.51159    -0.01215    0.2563      
H           -6.83897    -3.19059    -0.90611    
H           -4.21933    -3.15224    -1.01537    
C           -6.2255     -2.34543    -0.60935    
C           -6.78667    -1.16622    -0.12821    
C           0.0         0.0         0.0         
C           -0.42165    -1.28175    -0.47411    
C           -1.04878    0.83872     0.37292     
N           -1.86526    -2.91314    -1.03457    
N           -0.59197    -3.23645    -1.21943    
N           0.31859     -2.32542    -0.91141    
C           -0.20823    -4.53897    -1.74001    
H           -0.82295    1.83364     0.74572     
H           -3.13742    1.21234     0.61581     
C           -1.53198    -5.12542    -1.24848    
H           0.73546     -4.12091    -2.09041    
C           0.19524     -5.90846    -2.28734    
C           -2.40764    0.47375     0.29657     
C           -1.79811    -1.65286    -0.55199    
C           -2.85161    -0.76673    -0.16055    
C           -6.83443    4.05489     1.88698     
C           -6.17136    5.35064     2.35515     
C           -5.5083     6.6464      2.82333     
C           -4.84522    7.94216     3.2915      
C           -4.18215    9.23792     3.75967     
C           -3.51908    10.53368    4.22785     
C           -2.85601    11.82943    4.69602     
C           -2.19294    13.1252     5.16419     
C           -1.52987    14.42096    5.63238     
C           -0.8668     15.71671    6.10055     
C           -0.20373    17.01247    6.56873     
C           0.45934     18.30823    7.0369      
C           1.12241     19.60399    7.50507     
C           1.78548     20.89976    7.97325     
C           2.44855     22.19551    8.44142     
C           3.11161     23.49127    8.9096      
C           -12.87399   -7.08486    -2.12186    
C           -13.53702   -8.38063    -2.59003    
C           -14.20007   -9.67641    -3.0582     
C           -14.86311   -10.97218   -3.52637    
C           -15.52615   -12.26796   -3.99454    
C           -16.18919   -13.56373   -4.46272    
C           -16.85223   -14.8595    -4.93089    
C           -17.51528   -16.15528   -5.39906    
C           -18.17832   -17.45106   -5.86723    
C           -18.84135   -18.74683   -6.3354     
C           -19.5044    -20.04261   -6.80357    
C           -20.16744   -21.33838   -7.27174    
C           -20.83049   -22.63416   -7.73991    
C           -21.49352   -23.92993   -8.20808    
C           -22.15656   -25.22571   -8.67625    
C           -22.81961   -26.52148   -9.14443    
C           0.59871     -7.27794    -2.83468    
C           1.00218     -8.64742    -3.38201    
C           1.40565     -10.0169    -3.92935    
C           1.80912     -11.38638   -4.47668    
C           2.21259     -12.75586   -5.02401    
C           2.61606     -14.12534   -5.57135    
C           3.01953     -15.49482   -6.11868    
C           -2.85574    -5.71186    -0.75696    
C           -4.17949    -6.29831    -0.26543    
C           -5.50325    -6.88475    0.22609     
C           -6.827      -7.4712     0.71762     
C           -8.15076    -8.05764    1.20914     
C           -9.47451    -8.64408    1.70067     
C           -10.79827   -9.23053    2.19219     
C           -12.12202   -9.81697    2.68372     
H           -32.64649   0.05767     -1.27613    
H           1.09        0.0         0.0         
