71

C          0.0000000    0.0000000    0.0000000
C         -0.0298378   -1.4111358   -0.0803355
C         -1.2129859    0.6469701    0.0974891
N         -0.9968159   -3.4464241   -0.1505754
N          0.3309179   -3.4686716   -0.2172862
N          0.9778692   -2.3095205   -0.1823001
C          1.0563986   -4.7238603   -0.3255354
H         -1.2367709    1.7313222    0.1614901
H         -3.3742699    0.5000567    0.1958262
H          0.3212773   -5.5270442   -0.3361017
H          1.7287470   -4.8322008    0.5290747
H          1.6417071   -4.7290457   -1.2483082
C         -2.4497854   -0.0653541    0.1173573
C         -1.2659570   -2.1228377   -0.0604550
C         -2.4995353   -1.4411218    0.0400640
H         -3.4388628   -1.9845534    0.0549924
C          3.5723543    1.5485947   -0.3221800
C          2.6920368    2.5184723   -0.0057738
S          2.7744533    0.0219421   -0.7309076
H          0.5077957    2.6471841    0.1207817
H          2.9855976    3.5450262    0.2790016
C          1.3501460    2.0322324   -0.0914602
C          1.2384981    0.7029119   -0.4712083
C          8.1211736    0.0868969   -0.0362573
C          7.2346077    1.1345279   -0.3020524
N          7.4741228   -1.0608763    0.3431002
C          6.0836238   -0.7999428    0.3401752
C          7.1073294    2.5643758   -0.7234469
O          7.8878214    3.4237471   -1.0237814
O          5.3125188   -1.6680701    0.6425850
C          5.1265644    4.1524464   -1.0926322
C          8.0476824   -2.3916776    0.7111829
H          7.5018876   -3.0830329    0.0480552
H          7.9766075   -2.7623278    1.7255551
H          9.1076995   -2.3591339    0.6447316
H          4.7661070    4.4985098   -0.2708917
H          4.2877426    4.1755076   -1.9608411
H          5.9252561    4.8166014   -1.3343603
N          5.7130096    2.8277590   -0.7270107
C          5.9523972    0.6314131   -0.0816906
C          5.0664653    1.6789617   -0.3474142
C         12.0632066   -0.2934567    0.0621606
C         11.7799145    0.9892378    0.3624514
S         10.6142561   -1.2256810   -0.3451143
H          9.9482539    2.1884682    0.4642264
H         12.5433792    1.7370153    0.6435891
C         10.3744854    1.2337290    0.2653148
C          9.6188427    0.1317695   -0.1067822
C         16.1082171   -1.9845534    0.0549924
C         15.9086695   -0.6214138   -0.2632231
C         14.9877732   -2.7261113    0.3608443
N         14.7080126    1.2568192   -0.6017626
N         16.0171316    1.4045957   -0.7797485
N         16.7959970    0.3439922   -0.5997439
C         16.5826495    2.6886416   -1.1604738
H         15.0949560   -3.7780293    0.6114205
H         12.8347431   -2.7893300    0.6091242
H         15.7595373    3.3961862   -1.2482946
H         17.2905602    3.0173720   -0.3950077
H         17.1036457    2.5894515   -2.1152549
C         13.6799820   -2.1541383    0.3595351
C         14.6016260   -0.0499767   -0.2644691
C         13.4650245   -0.8271263    0.0519963
C         19.5005326   -4.0367861    0.2428437
C         19.7871967   -2.7546738    0.5424200
S         17.7958019   -4.2654985   -0.1766280
H         18.6384233   -0.8903029    0.6314874
H         20.7940181   -2.4017757    0.8302768
C         18.6198020   -1.9361130    0.4347626
C         17.4701652   -2.6131210    0.0556028
H         20.1850875   -4.8595734    0.2428437
